<<<<<<< HEAD
LTspice 24.0.12 for Windows
Circuit: * C:\Users\namig\Documents\GitHub\Hopper\1_Simulation\Hopper.asc
Start Time: Sun Sep  8 16:53:17 2024
Warning: Multiple definitions of model "2scr375p" Type: BJT
Warning: Multiple definitions of model "bc857b" Type: BJT
Warning: Multiple definitions of model "bc847c" Type: BJT
Warning: Multiple definitions of model "bc847b" Type: BJT
solver = Normal
Maximum thread count: 8
tnom = 27
temp = 27
method = modified trap
Direct Newton iteration for .op point succeeded.
Total elapsed time: 0.223 seconds.
=======
Circuit: * C:\Users\namig\Documents\GitHub\Hopper\1_Simulation\Hopper.asc

Limiting rise time of source vsensor to 0.1
Limiting fall time of source vsensor to 0.1
Direct Newton iteration for .op point succeeded.
Heightened Def Con from 0.012633 to 0.012633
Heightened Def Con from 0.012633 to 0.012633
Heightened Def Con from 0.012633 to 0.012633
Heightened Def Con from 0.012633 to 0.012633
Heightened Def Con from 0.012633 to 0.012633
Heightened Def Con from 0.012633 to 0.012633
Heightened Def Con from 0.012633 to 0.012633
Heightened Def Con from 0.012633 to 0.012633
Heightened Def Con from 0.012633 to 0.012633
Heightened Def Con from 0.012633 to 0.012633
Heightened Def Con from 0.012633 to 0.012633
Heightened Def Con from 0.012633 to 0.012633
Heightened Def Con from 0.012633 to 0.012633
Heightened Def Con from 0.012633 to 0.012633
Heightened Def Con from 0.012633 to 0.012633
Heightened Def Con from 0.012633 to 0.012633
Heightened Def Con from 0.012633 to 0.012633
Heightened Def Con from 0.012633 to 0.012633
Heightened Def Con from 0.012633 to 0.012633
Heightened Def Con from 0.012633 to 0.012633
Heightened Def Con from 0.012633 to 0.012633
Heightened Def Con from 0.012633 to 0.012633
Heightened Def Con from 0.012633 to 0.012633
Heightened Def Con from 0.012633 to 0.012633
Heightened Def Con from 0.012633 to 0.012633
Heightened Def Con from 0.012633 to 0.012633
Heightened Def Con from 0.012633 to 0.012633
Heightened Def Con from 0.012633 to 0.012633
Heightened Def Con from 0.012633 to 0.012633
Heightened Def Con from 0.012633 to 0.012633
Heightened Def Con from 0.012633 to 0.012633
Heightened Def Con from 0.012633 to 0.012633
Heightened Def Con from 0.012633 to 0.012633
Heightened Def Con from 0.012633 to 0.012633
Heightened Def Con from 0.012633 to 0.012633
Heightened Def Con from 0.012633 to 0.012633
Heightened Def Con from 0.012633 to 0.012633
Heightened Def Con from 0.012633 to 0.012633
Heightened Def Con from 0.012633 to 0.012633
Heightened Def Con from 0.012633 to 0.012633
Heightened Def Con from 0.012633 to 0.012633
Heightened Def Con from 0.012633 to 0.012633
Heightened Def Con from 0.012633 to 0.012633
Heightened Def Con from 0.012633 to 0.012633
Heightened Def Con from 0.012633 to 0.012633
Heightened Def Con from 0.012633 to 0.012633
Heightened Def Con from 0.012633 to 0.012633
Heightened Def Con from 0.012633 to 0.012633
Heightened Def Con from 0.012633 to 0.012633
Heightened Def Con from 0.012633 to 0.012633
Heightened Def Con from 0.012633 to 0.012633
Heightened Def Con from 0.012633 to 0.012633
Heightened Def Con from 0.012633 to 0.012633
Heightened Def Con from 0.012633 to 0.012633
Heightened Def Con from 0.012633 to 0.012633
Heightened Def Con from 0.012633 to 0.012633
Heightened Def Con from 0.012633 to 0.012633
Heightened Def Con from 0.012633 to 0.012633
Heightened Def Con from 0.012633 to 0.012633
Heightened Def Con from 0.012633 to 0.012633
Heightened Def Con from 0.012633 to 0.012633
Heightened Def Con from 0.012633 to 0.012633
Heightened Def Con from 0.012633 to 0.012633
Heightened Def Con from 0.012633 to 0.012633
Heightened Def Con from 0.012633 to 0.012633
Heightened Def Con from 0.012633 to 0.012633
Heightened Def Con from 0.012633 to 0.012633
Heightened Def Con from 0.012633 to 0.012633
Heightened Def Con from 0.012633 to 0.012633
Heightened Def Con from 0.012633 to 0.012633
Heightened Def Con from 0.012633 to 0.012633
Heightened Def Con from 0.012633 to 0.012633
Heightened Def Con from 0.012633 to 0.012633
Heightened Def Con from 0.012633 to 0.012633
Heightened Def Con from 0.012633 to 0.012633
Heightened Def Con from 0.012633 to 0.012633
Heightened Def Con from 0.012633 to 0.012633
Heightened Def Con from 0.012633 to 0.012633
Heightened Def Con from 0.012633 to 0.012633
Heightened Def Con from 0.012633 to 0.012633
Heightened Def Con from 0.012633 to 0.012633
Heightened Def Con from 0.012633 to 0.012633
Heightened Def Con from 0.012633 to 0.012633
Heightened Def Con from 0.012633 to 0.012633
Heightened Def Con from 0.012633 to 0.012633
Heightened Def Con from 0.012633 to 0.012633
Heightened Def Con from 0.012633 to 0.012633
Heightened Def Con from 0.012633 to 0.012633
Heightened Def Con from 0.012633 to 0.012633
Heightened Def Con from 0.012633 to 0.012633
Heightened Def Con from 0.012633 to 0.012633
Heightened Def Con from 0.012633 to 0.012633
Heightened Def Con from 0.012633 to 0.012633
Heightened Def Con from 0.012633 to 0.012633
Heightened Def Con from 0.012633 to 0.012633
Heightened Def Con from 0.012633 to 0.012633
Heightened Def Con from 0.012633 to 0.012633
Heightened Def Con from 0.012633 to 0.012633
Heightened Def Con from 0.012633 to 0.012633
Heightened Def Con from 0.012633 to 0.012633
Heightened Def Con from 0.012633 to 0.012633
Heightened Def Con from 0.012633 to 0.012633
Heightened Def Con from 0.012633 to 0.012633
Heightened Def Con from 0.012633 to 0.012633
Heightened Def Con from 0.012633 to 0.012633
Heightened Def Con from 0.012633 to 0.012633
Heightened Def Con from 0.012633 to 0.012633
Heightened Def Con from 0.012633 to 0.012633
Heightened Def Con from 0.012633 to 0.012633
Heightened Def Con from 0.012633 to 0.012633
Heightened Def Con from 0.012633 to 0.012633
Heightened Def Con from 0.012633 to 0.012633
Heightened Def Con from 0.012633 to 0.012633
Heightened Def Con from 0.012633 to 0.012633
Heightened Def Con from 0.012633 to 0.012633
Heightened Def Con from 0.012633 to 0.012633
Heightened Def Con from 0.012633 to 0.012633
Heightened Def Con from 0.012633 to 0.012633
Heightened Def Con from 0.012633 to 0.012633
Heightened Def Con from 0.012633 to 0.012633
Heightened Def Con from 0.012633 to 0.012633
Heightened Def Con from 0.012633 to 0.012633
Heightened Def Con from 0.012633 to 0.012633
Heightened Def Con from 0.012633 to 0.012633
Heightened Def Con from 0.012633 to 0.012633
Heightened Def Con from 0.012633 to 0.012633
Heightened Def Con from 0.012633 to 0.012633
Heightened Def Con from 0.012633 to 0.012633
Heightened Def Con from 0.012633 to 0.012633
Heightened Def Con from 0.012633 to 0.012633
Heightened Def Con from 0.012633 to 0.012633
Heightened Def Con from 0.012633 to 0.012633
Heightened Def Con from 0.012633 to 0.012633
Heightened Def Con from 0.012633 to 0.012633
Heightened Def Con from 0.012633 to 0.012633
Heightened Def Con from 0.012633 to 0.012633
Heightened Def Con from 0.012633 to 0.012633
Heightened Def Con from 0.012633 to 0.012633
Heightened Def Con from 0.012633 to 0.012633
Heightened Def Con from 0.012633 to 0.012633
Heightened Def Con from 0.012633 to 0.012633
Heightened Def Con from 0.012633 to 0.012633
Heightened Def Con from 0.012633 to 0.012633
Heightened Def Con from 0.012633 to 0.012633
Heightened Def Con from 0.012633 to 0.012633
Heightened Def Con from 0.012633 to 0.012633
Heightened Def Con from 0.012633 to 0.012633
Heightened Def Con from 0.012633 to 0.012633
Heightened Def Con from 0.012633 to 0.012633
Heightened Def Con from 0.012633 to 0.012633
Heightened Def Con from 0.012633 to 0.012633
Heightened Def Con from 0.012633 to 0.012633
Heightened Def Con from 0.012633 to 0.012633
Heightened Def Con from 0.012633 to 0.012633
Heightened Def Con from 0.012633 to 0.012633
Heightened Def Con from 0.012633 to 0.012633
Heightened Def Con from 0.012633 to 0.012633
Heightened Def Con from 0.012633 to 0.012633
Heightened Def Con from 0.012633 to 0.012633
Heightened Def Con from 0.012633 to 0.012633
Heightened Def Con from 0.012633 to 0.012633
Heightened Def Con from 0.012633 to 0.012633
Heightened Def Con from 0.012633 to 0.012633
Heightened Def Con from 0.012633 to 0.012633
Heightened Def Con from 0.012633 to 0.012633
Heightened Def Con from 0.012633 to 0.012633
Heightened Def Con from 0.012633 to 0.012633
Heightened Def Con from 0.012633 to 0.012633
Heightened Def Con from 0.012633 to 0.012633
Heightened Def Con from 0.012633 to 0.012633
Heightened Def Con from 0.012633 to 0.012633
Heightened Def Con from 0.012633 to 0.012633
Heightened Def Con from 0.012633 to 0.012633
Heightened Def Con from 0.012633 to 0.012633
Heightened Def Con from 0.012633 to 0.012633
Heightened Def Con from 0.012633 to 0.012633
Heightened Def Con from 0.012633 to 0.012633
Heightened Def Con from 0.012633 to 0.012633
Heightened Def Con from 0.012633 to 0.012633
Heightened Def Con from 0.012633 to 0.012633
Heightened Def Con from 0.012633 to 0.012633
Heightened Def Con from 0.012633 to 0.012633
Heightened Def Con from 0.012633 to 0.012633
Heightened Def Con from 0.012633 to 0.012633
Heightened Def Con from 0.012633 to 0.012633
Heightened Def Con from 0.012633 to 0.012633
Heightened Def Con from 0.012633 to 0.012633
Heightened Def Con from 0.012633 to 0.012633
Heightened Def Con from 0.012633 to 0.012633
Heightened Def Con from 0.012633 to 0.012633
Heightened Def Con from 0.012633 to 0.012633
Heightened Def Con from 0.012633 to 0.012633
Heightened Def Con from 0.012633 to 0.012633
Heightened Def Con from 0.012633 to 0.012633
Heightened Def Con from 0.012633 to 0.012633
Heightened Def Con from 0.012633 to 0.012633
Heightened Def Con from 0.012633 to 0.012633
Heightened Def Con from 0.012633 to 0.012633
Heightened Def Con from 0.012633 to 0.012633
Heightened Def Con from 0.012633 to 0.012633
Heightened Def Con from 0.012633 to 0.012633
Heightened Def Con from 0.012633 to 0.012633
Heightened Def Con from 0.012633 to 0.012633
Heightened Def Con from 0.012633 to 0.012633
Heightened Def Con from 0.012633 to 0.012633
Heightened Def Con from 0.012633 to 0.012633
Heightened Def Con from 0.012633 to 0.012633
Heightened Def Con from 0.012633 to 0.012633
Heightened Def Con from 0.012633 to 0.012633
Heightened Def Con from 0.012633 to 0.012633
Heightened Def Con from 0.012633 to 0.012633
Heightened Def Con from 0.012633 to 0.012633
Heightened Def Con from 0.012633 to 0.012633
Heightened Def Con from 0.012633 to 0.012633
Heightened Def Con from 0.012633 to 0.012633
Heightened Def Con from 0.012633 to 0.012633
Heightened Def Con from 0.012633 to 0.012633
Heightened Def Con from 0.012633 to 0.012633
Heightened Def Con from 0.012633 to 0.012633
Heightened Def Con from 0.012633 to 0.012633
Heightened Def Con from 0.012633 to 0.012633
Heightened Def Con from 0.012633 to 0.012633
Heightened Def Con from 0.012633 to 0.012633
Heightened Def Con from 0.012633 to 0.012633
Heightened Def Con from 0.012633 to 0.012633
Heightened Def Con from 0.012633 to 0.012633
Heightened Def Con from 0.012633 to 0.012633
Heightened Def Con from 0.012633 to 0.012633
Heightened Def Con from 0.012633 to 0.012633
Heightened Def Con from 0.012633 to 0.012633
Heightened Def Con from 0.012633 to 0.012633
Heightened Def Con from 0.012633 to 0.012633
Heightened Def Con from 0.012633 to 0.012633
Heightened Def Con from 0.012633 to 0.012633
Heightened Def Con from 0.012633 to 0.012633
Heightened Def Con from 0.012633 to 0.012633
Heightened Def Con from 0.012633 to 0.012633
Heightened Def Con from 0.012633 to 0.012633
Heightened Def Con from 0.012633 to 0.012633
Heightened Def Con from 0.012633 to 0.012633
Heightened Def Con from 0.0126331 to 0.0126331
Heightened Def Con from 0.0126331 to 0.0126331
Heightened Def Con from 0.0126331 to 0.0126331
Heightened Def Con from 0.0126331 to 0.0126331
Heightened Def Con from 0.0126331 to 0.0126331
Heightened Def Con from 0.0126331 to 0.0126331
Heightened Def Con from 0.0126331 to 0.0126331
Heightened Def Con from 0.0126331 to 0.0126331
Heightened Def Con from 0.0126331 to 0.0126331
Heightened Def Con from 0.0126331 to 0.0126331
Heightened Def Con from 0.0126331 to 0.0126331
Heightened Def Con from 0.0126331 to 0.0126331
Heightened Def Con from 0.0126331 to 0.0126331
Heightened Def Con from 0.0126331 to 0.0126331
Heightened Def Con from 0.0126331 to 0.0126331
Heightened Def Con from 0.0126331 to 0.0126331
Heightened Def Con from 0.0126331 to 0.0126331
Heightened Def Con from 0.0126331 to 0.0126331
Heightened Def Con from 0.0126331 to 0.0126331
Heightened Def Con from 0.0126331 to 0.0126331
Heightened Def Con from 0.0126331 to 0.0126331
Heightened Def Con from 0.0126331 to 0.0126331
Heightened Def Con from 0.0126331 to 0.0126331
Heightened Def Con from 0.0126331 to 0.0126331
Heightened Def Con from 0.0126331 to 0.0126331
Heightened Def Con from 0.0126331 to 0.0126331
Heightened Def Con from 0.0126331 to 0.0126331
Heightened Def Con from 0.0126331 to 0.0126331
Heightened Def Con from 0.0126331 to 0.0126331
Heightened Def Con from 0.0126331 to 0.0126331
Heightened Def Con from 0.0126331 to 0.0126331
Heightened Def Con from 0.0126331 to 0.0126331
Heightened Def Con from 0.0126331 to 0.0126331
Heightened Def Con from 0.0126331 to 0.0126331
Heightened Def Con from 0.0126331 to 0.0126331
Heightened Def Con from 0.0126331 to 0.0126331
Heightened Def Con from 0.0126331 to 0.0126331
Heightened Def Con from 0.0126331 to 0.0126331
Heightened Def Con from 0.0126331 to 0.0126331
Heightened Def Con from 0.0126331 to 0.0126331
Heightened Def Con from 0.0126331 to 0.0126331
Heightened Def Con from 0.0126331 to 0.0126331
Heightened Def Con from 0.0126331 to 0.0126331
Heightened Def Con from 0.0126331 to 0.0126331
Heightened Def Con from 0.0126331 to 0.0126331
Heightened Def Con from 0.0126331 to 0.0126331
Heightened Def Con from 0.0126331 to 0.0126331
Heightened Def Con from 0.0126331 to 0.0126331
Heightened Def Con from 0.0126331 to 0.0126331
Heightened Def Con from 0.0126331 to 0.0126331
Heightened Def Con from 0.0126331 to 0.0126331
Heightened Def Con from 0.0126331 to 0.0126331
Heightened Def Con from 0.0126331 to 0.0126331
Heightened Def Con from 0.0126331 to 0.0126331
Heightened Def Con from 0.0126331 to 0.0126331
Heightened Def Con from 0.0126331 to 0.0126331
Heightened Def Con from 0.0126331 to 0.0126331
Heightened Def Con from 0.0126331 to 0.0126331
Heightened Def Con from 0.0126331 to 0.0126331
Heightened Def Con from 0.0126331 to 0.0126331
Heightened Def Con from 0.0126331 to 0.0126331
Heightened Def Con from 0.0126331 to 0.0126331
Heightened Def Con from 0.0126331 to 0.0126331
Heightened Def Con from 0.0126331 to 0.0126331
Heightened Def Con from 0.0126331 to 0.0126331
Heightened Def Con from 0.0126331 to 0.0126331
Heightened Def Con from 0.0126331 to 0.0126331
Heightened Def Con from 0.0126331 to 0.0126331
Heightened Def Con from 0.0126331 to 0.0126331
Heightened Def Con from 0.0126331 to 0.0126331
Heightened Def Con from 0.0126331 to 0.0126331
Heightened Def Con from 0.0126331 to 0.0126331
Heightened Def Con from 0.0126331 to 0.0126331
Heightened Def Con from 0.0126331 to 0.0126331
Heightened Def Con from 0.0126331 to 0.0126331
Heightened Def Con from 0.0126331 to 0.0126331
Heightened Def Con from 0.0126331 to 0.0126331
Heightened Def Con from 0.0126331 to 0.0126331
Heightened Def Con from 0.0126331 to 0.0126331
Heightened Def Con from 0.0126331 to 0.0126331
Heightened Def Con from 0.0126331 to 0.0126331
Heightened Def Con from 0.0126331 to 0.0126331
Heightened Def Con from 0.0126331 to 0.0126331
Heightened Def Con from 0.0126331 to 0.0126331
Heightened Def Con from 0.0126331 to 0.0126331
Heightened Def Con from 0.0126331 to 0.0126331
Heightened Def Con from 0.0126331 to 0.0126331
Heightened Def Con from 0.0126331 to 0.0126331
Heightened Def Con from 0.0126331 to 0.0126331
Heightened Def Con from 0.0126331 to 0.0126331
Heightened Def Con from 0.0126331 to 0.0126331
Heightened Def Con from 0.0126331 to 0.0126331
Heightened Def Con from 0.0126331 to 0.0126331
Heightened Def Con from 0.0126331 to 0.0126331
Heightened Def Con from 0.0126331 to 0.0126331
Heightened Def Con from 0.0126331 to 0.0126331
Heightened Def Con from 0.0126331 to 0.0126331
Heightened Def Con from 0.0126331 to 0.0126331
Heightened Def Con from 0.0126331 to 0.0126331
Heightened Def Con from 0.0126331 to 0.0126331
Heightened Def Con from 0.0126331 to 0.0126331
Heightened Def Con from 0.0126331 to 0.0126331
Heightened Def Con from 0.0126331 to 0.0126331
Heightened Def Con from 0.0126331 to 0.0126331
Heightened Def Con from 0.0126331 to 0.0126331
Heightened Def Con from 0.0126331 to 0.0126331
Heightened Def Con from 0.0126331 to 0.0126331
Heightened Def Con from 0.0126331 to 0.0126331
Heightened Def Con from 0.0126331 to 0.0126331
Heightened Def Con from 0.0126331 to 0.0126331
Heightened Def Con from 0.0126331 to 0.0126331
Heightened Def Con from 0.0126331 to 0.0126331
Heightened Def Con from 0.0126331 to 0.0126331
Heightened Def Con from 0.0126331 to 0.0126331
Heightened Def Con from 0.0126331 to 0.0126331
Heightened Def Con from 0.0126331 to 0.0126331
Heightened Def Con from 0.0126331 to 0.0126331
Heightened Def Con from 0.0126331 to 0.0126331
Heightened Def Con from 0.0126331 to 0.0126331
Heightened Def Con from 0.0126331 to 0.0126331
Heightened Def Con from 0.0126331 to 0.0126331
Heightened Def Con from 0.0126331 to 0.0126331
Heightened Def Con from 0.0126331 to 0.0126331
Heightened Def Con from 0.0126331 to 0.0126331
Heightened Def Con from 0.0126331 to 0.0126331
Heightened Def Con from 0.0126331 to 0.0126331
Heightened Def Con from 0.0126331 to 0.0126331
Heightened Def Con from 0.0126331 to 0.0126331
Heightened Def Con from 0.0126331 to 0.0126331
Heightened Def Con from 0.0126331 to 0.0126331
Heightened Def Con from 0.0126331 to 0.0126331
Heightened Def Con from 0.0126331 to 0.0126331
Heightened Def Con from 0.0126331 to 0.0126331
Heightened Def Con from 0.0126331 to 0.0126331
Heightened Def Con from 0.0126331 to 0.0126331
Heightened Def Con from 0.0126331 to 0.0126331
Heightened Def Con from 0.0126331 to 0.0126331
Heightened Def Con from 0.0126331 to 0.0126331
Heightened Def Con from 0.0126331 to 0.0126331
Heightened Def Con from 0.0126331 to 0.0126331
Heightened Def Con from 0.0126331 to 0.0126331
Heightened Def Con from 0.0126331 to 0.0126331
Heightened Def Con from 0.0126331 to 0.0126331
Heightened Def Con from 0.0126331 to 0.0126331
Heightened Def Con from 0.0126331 to 0.0126331
Heightened Def Con from 0.0126331 to 0.0126331
Heightened Def Con from 0.0126331 to 0.0126331
Heightened Def Con from 0.0126331 to 0.0126331
Heightened Def Con from 0.0126331 to 0.0126331
Heightened Def Con from 0.0126331 to 0.0126331
Heightened Def Con from 0.0126331 to 0.0126331
Heightened Def Con from 0.0126331 to 0.0126331
Heightened Def Con from 0.0126331 to 0.0126331
Heightened Def Con from 0.0126331 to 0.0126331
Heightened Def Con from 0.0126331 to 0.0126331
Heightened Def Con from 0.0126331 to 0.0126331
Heightened Def Con from 0.0126331 to 0.0126331
Heightened Def Con from 0.0126331 to 0.0126331
Heightened Def Con from 0.0126331 to 0.0126331
Heightened Def Con from 0.0126331 to 0.0126331
Heightened Def Con from 0.0126331 to 0.0126331
Heightened Def Con from 0.0126331 to 0.0126331
Heightened Def Con from 0.0126331 to 0.0126331
Heightened Def Con from 0.0126331 to 0.0126331
Heightened Def Con from 0.0126331 to 0.0126331
Heightened Def Con from 0.0126331 to 0.0126331
Heightened Def Con from 0.0126331 to 0.0126331
Heightened Def Con from 0.0126331 to 0.0126331
Heightened Def Con from 0.0126331 to 0.0126331
Heightened Def Con from 0.0126331 to 0.0126331
Heightened Def Con from 0.0126331 to 0.0126331
Heightened Def Con from 0.0126331 to 0.0126331
Heightened Def Con from 0.0126331 to 0.0126331
Heightened Def Con from 0.0126331 to 0.0126331
Heightened Def Con from 0.0126331 to 0.0126331
Heightened Def Con from 0.0126331 to 0.0126331
Heightened Def Con from 0.0126331 to 0.0126331
Heightened Def Con from 0.0126331 to 0.0126331
Heightened Def Con from 0.0126331 to 0.0126331
Heightened Def Con from 0.0126331 to 0.0126331
Heightened Def Con from 0.0126331 to 0.0126331
Heightened Def Con from 0.0126331 to 0.0126331
Heightened Def Con from 0.0126331 to 0.0126331
Heightened Def Con from 0.0126331 to 0.0126331
Heightened Def Con from 0.0126331 to 0.0126331
Heightened Def Con from 0.0126331 to 0.0126331
Heightened Def Con from 0.0126331 to 0.0126331
Heightened Def Con from 0.0126331 to 0.0126331
Heightened Def Con from 0.0126331 to 0.0126331
Heightened Def Con from 0.0126331 to 0.0126331
Heightened Def Con from 0.0126331 to 0.0126331
Heightened Def Con from 0.0126331 to 0.0126331
Heightened Def Con from 0.0126331 to 0.0126331
Heightened Def Con from 0.0126331 to 0.0126331
Heightened Def Con from 0.0126331 to 0.0126331
Heightened Def Con from 0.0126331 to 0.0126331
Heightened Def Con from 0.0126331 to 0.0126331
Heightened Def Con from 0.0126331 to 0.0126331
Heightened Def Con from 0.0126331 to 0.0126331
Heightened Def Con from 0.0126331 to 0.0126331
Heightened Def Con from 0.0126331 to 0.0126331
Heightened Def Con from 0.0126331 to 0.0126331
Heightened Def Con from 0.0126331 to 0.0126331
Heightened Def Con from 0.0126331 to 0.0126331
Heightened Def Con from 0.0126331 to 0.0126331
Heightened Def Con from 0.0126331 to 0.0126331
Heightened Def Con from 0.0126331 to 0.0126331
Heightened Def Con from 0.0126331 to 0.0126331
Heightened Def Con from 0.0126331 to 0.0126331
Heightened Def Con from 0.0126331 to 0.0126331
Heightened Def Con from 0.0126331 to 0.0126331
Heightened Def Con from 0.0126331 to 0.0126331
Heightened Def Con from 0.0126331 to 0.0126331
Heightened Def Con from 0.0126331 to 0.0126331
Heightened Def Con from 0.0126331 to 0.0126331
Heightened Def Con from 0.0126331 to 0.0126331
Heightened Def Con from 0.0126331 to 0.0126331
Heightened Def Con from 0.0126331 to 0.0126331
Heightened Def Con from 0.0126331 to 0.0126331
Heightened Def Con from 0.0126331 to 0.0126331
Heightened Def Con from 0.0126331 to 0.0126331
Heightened Def Con from 0.0126331 to 0.0126331
Heightened Def Con from 0.0126331 to 0.0126331
Heightened Def Con from 0.0126331 to 0.0126331
Heightened Def Con from 0.0126331 to 0.0126331
Heightened Def Con from 0.0126331 to 0.0126331
Heightened Def Con from 0.0126331 to 0.0126331
Heightened Def Con from 0.0126331 to 0.0126331
Heightened Def Con from 0.0126331 to 0.0126331
Heightened Def Con from 0.0126331 to 0.0126331
Heightened Def Con from 0.0126331 to 0.0126331
Heightened Def Con from 0.0126331 to 0.0126331
Heightened Def Con from 0.0126331 to 0.0126331
Heightened Def Con from 0.0126331 to 0.0126331
Heightened Def Con from 0.0126331 to 0.0126331
Heightened Def Con from 0.0126331 to 0.0126331
Heightened Def Con from 0.0126331 to 0.0126331
Heightened Def Con from 0.0126331 to 0.0126331
Heightened Def Con from 0.0126331 to 0.0126331
Heightened Def Con from 0.0126331 to 0.0126331
Heightened Def Con from 0.0126331 to 0.0126331
Heightened Def Con from 0.0126331 to 0.0126331
Heightened Def Con from 0.0126331 to 0.0126331
Heightened Def Con from 0.0126331 to 0.0126331
Heightened Def Con from 0.0126331 to 0.0126331
Heightened Def Con from 0.0126331 to 0.0126331
Heightened Def Con from 0.0126331 to 0.0126331
Heightened Def Con from 0.0126331 to 0.0126331
Heightened Def Con from 0.0126331 to 0.0126331
Heightened Def Con from 0.0126331 to 0.0126331
Heightened Def Con from 0.0126331 to 0.0126331
Heightened Def Con from 0.0126331 to 0.0126331
Heightened Def Con from 0.0126331 to 0.0126331
Heightened Def Con from 0.0126331 to 0.0126331
Heightened Def Con from 0.0126331 to 0.0126331
Heightened Def Con from 0.0126331 to 0.0126331
Heightened Def Con from 0.0126331 to 0.0126331
Heightened Def Con from 0.0126331 to 0.0126331
Heightened Def Con from 0.0126331 to 0.0126331
Heightened Def Con from 0.0126331 to 0.0126331
Heightened Def Con from 0.0126331 to 0.0126331
Heightened Def Con from 0.0126331 to 0.0126331
Heightened Def Con from 0.0126331 to 0.0126331
Heightened Def Con from 0.0126331 to 0.0126331
Heightened Def Con from 0.0126331 to 0.0126331
Heightened Def Con from 0.0126331 to 0.0126331
Heightened Def Con from 0.0126331 to 0.0126331
Heightened Def Con from 0.0126331 to 0.0126331
Heightened Def Con from 0.0126331 to 0.0126331
Heightened Def Con from 0.0126331 to 0.0126331
Heightened Def Con from 0.0126331 to 0.0126331
Heightened Def Con from 0.0126331 to 0.0126331
Heightened Def Con from 0.0126331 to 0.0126331
Heightened Def Con from 0.0126331 to 0.0126331
Heightened Def Con from 0.0126331 to 0.0126331
Heightened Def Con from 0.0126331 to 0.0126331
Heightened Def Con from 0.0126331 to 0.0126331
Heightened Def Con from 0.0126331 to 0.0126331
Heightened Def Con from 0.0126331 to 0.0126331
Heightened Def Con from 0.0126331 to 0.0126331
Heightened Def Con from 0.0126331 to 0.0126331
Heightened Def Con from 0.0126331 to 0.0126331
Heightened Def Con from 0.0126331 to 0.0126331
Heightened Def Con from 0.0126331 to 0.0126331
Heightened Def Con from 0.0126331 to 0.0126331
Heightened Def Con from 0.0126331 to 0.0126331
Heightened Def Con from 0.0126331 to 0.0126331
Heightened Def Con from 0.0126331 to 0.0126331
Heightened Def Con from 0.0126331 to 0.0126331
Heightened Def Con from 0.0126331 to 0.0126331
Heightened Def Con from 0.0126331 to 0.0126331
Heightened Def Con from 0.0126331 to 0.0126331
Heightened Def Con from 0.0126331 to 0.0126331
Heightened Def Con from 0.0126331 to 0.0126331
Heightened Def Con from 0.0126331 to 0.0126331
Heightened Def Con from 0.0126331 to 0.0126331
Heightened Def Con from 0.0126331 to 0.0126331
Heightened Def Con from 0.0126331 to 0.0126331
Heightened Def Con from 0.0126331 to 0.0126331
Heightened Def Con from 0.0126332 to 0.0126332
Heightened Def Con from 0.0126332 to 0.0126332
Heightened Def Con from 0.0126332 to 0.0126332
Heightened Def Con from 0.0126332 to 0.0126332
Heightened Def Con from 0.0126332 to 0.0126332
Heightened Def Con from 0.0126332 to 0.0126332
Heightened Def Con from 0.0126332 to 0.0126332
Heightened Def Con from 0.0126332 to 0.0126332
Heightened Def Con from 0.0126332 to 0.0126332
Heightened Def Con from 0.0126332 to 0.0126332
Heightened Def Con from 0.0126332 to 0.0126332
Heightened Def Con from 0.0126332 to 0.0126332
Heightened Def Con from 0.0126332 to 0.0126332
Heightened Def Con from 0.0126332 to 0.0126332
Heightened Def Con from 0.0126332 to 0.0126332
Heightened Def Con from 0.0126332 to 0.0126332
Heightened Def Con from 0.0126332 to 0.0126332
Heightened Def Con from 0.0126332 to 0.0126332
Heightened Def Con from 0.0126332 to 0.0126332
Heightened Def Con from 0.0126332 to 0.0126332
Heightened Def Con from 0.0126332 to 0.0126332
Heightened Def Con from 0.0126332 to 0.0126332
Heightened Def Con from 0.0126332 to 0.0126332
Heightened Def Con from 0.0126332 to 0.0126332
Heightened Def Con from 0.0126332 to 0.0126332
Heightened Def Con from 0.0126332 to 0.0126332
Heightened Def Con from 0.0126332 to 0.0126332
Heightened Def Con from 0.0126332 to 0.0126332
Heightened Def Con from 0.0126332 to 0.0126332
Heightened Def Con from 0.0126332 to 0.0126332
Heightened Def Con from 0.0126332 to 0.0126332
Heightened Def Con from 0.0126332 to 0.0126332
Heightened Def Con from 0.0126332 to 0.0126332
Heightened Def Con from 0.0126332 to 0.0126332
Heightened Def Con from 0.0126332 to 0.0126332
Heightened Def Con from 0.0126332 to 0.0126332
Heightened Def Con from 0.0126332 to 0.0126332
Heightened Def Con from 0.0126332 to 0.0126332
Heightened Def Con from 0.0126332 to 0.0126332
Heightened Def Con from 0.0126332 to 0.0126332
Heightened Def Con from 0.0126332 to 0.0126332
Heightened Def Con from 0.0126332 to 0.0126332
Heightened Def Con from 0.0126332 to 0.0126332
Heightened Def Con from 0.0126332 to 0.0126332
Heightened Def Con from 0.0126332 to 0.0126332
Heightened Def Con from 0.0126332 to 0.0126332
Heightened Def Con from 0.0126332 to 0.0126332
Heightened Def Con from 0.0126332 to 0.0126332
Heightened Def Con from 0.0126332 to 0.0126332
Heightened Def Con from 0.0126332 to 0.0126332
Heightened Def Con from 0.0126332 to 0.0126332
Heightened Def Con from 0.0126332 to 0.0126332
Heightened Def Con from 0.0126332 to 0.0126332
Heightened Def Con from 0.0126332 to 0.0126332
Heightened Def Con from 0.0126332 to 0.0126332
Heightened Def Con from 0.0126332 to 0.0126332
Heightened Def Con from 0.0126332 to 0.0126332
Heightened Def Con from 0.0126332 to 0.0126332
Heightened Def Con from 0.0126332 to 0.0126332
Heightened Def Con from 0.0126332 to 0.0126332
Heightened Def Con from 0.0126332 to 0.0126332
Heightened Def Con from 0.0126332 to 0.0126332
Heightened Def Con from 0.0126332 to 0.0126332
Heightened Def Con from 0.0126332 to 0.0126332
Heightened Def Con from 0.0126332 to 0.0126332
Heightened Def Con from 0.0126332 to 0.0126332
Heightened Def Con from 0.0126332 to 0.0126332
Heightened Def Con from 0.0126332 to 0.0126332
Heightened Def Con from 0.0126332 to 0.0126332
Heightened Def Con from 0.0126332 to 0.0126332
Heightened Def Con from 0.0126332 to 0.0126332
Heightened Def Con from 0.0126332 to 0.0126332
Heightened Def Con from 0.0126332 to 0.0126332
Heightened Def Con from 0.0126332 to 0.0126332
Heightened Def Con from 0.0126332 to 0.0126332
Heightened Def Con from 0.0126332 to 0.0126332
Heightened Def Con from 0.0126332 to 0.0126332
Heightened Def Con from 0.0126332 to 0.0126332
Heightened Def Con from 0.0126332 to 0.0126332
Heightened Def Con from 0.0126332 to 0.0126332
Heightened Def Con from 0.0126332 to 0.0126332
Heightened Def Con from 0.0126332 to 0.0126332
Heightened Def Con from 0.0126332 to 0.0126332
Heightened Def Con from 0.0126332 to 0.0126332
Heightened Def Con from 0.0126332 to 0.0126332
Heightened Def Con from 0.0126332 to 0.0126332
Heightened Def Con from 0.0126332 to 0.0126332
Heightened Def Con from 0.0126332 to 0.0126332
Heightened Def Con from 0.0126332 to 0.0126332
Heightened Def Con from 0.0126332 to 0.0126332
Heightened Def Con from 0.0126332 to 0.0126332
Heightened Def Con from 0.0126332 to 0.0126332
Heightened Def Con from 0.0126332 to 0.0126332
Heightened Def Con from 0.0126332 to 0.0126332
Heightened Def Con from 0.0126332 to 0.0126332
Heightened Def Con from 0.0126332 to 0.0126332
Heightened Def Con from 0.0126332 to 0.0126332
Heightened Def Con from 0.0126332 to 0.0126332
Heightened Def Con from 0.0126332 to 0.0126332
Heightened Def Con from 0.0126332 to 0.0126332
Heightened Def Con from 0.0126332 to 0.0126332
Heightened Def Con from 0.0126332 to 0.0126332
Heightened Def Con from 0.0126332 to 0.0126332
Heightened Def Con from 0.0126332 to 0.0126332
Heightened Def Con from 0.0126332 to 0.0126332
Heightened Def Con from 0.0126332 to 0.0126332
Heightened Def Con from 0.0126332 to 0.0126332
Heightened Def Con from 0.0126332 to 0.0126332
Heightened Def Con from 0.0126332 to 0.0126332
Heightened Def Con from 0.0126332 to 0.0126332
Heightened Def Con from 0.0126332 to 0.0126332
Heightened Def Con from 0.0126332 to 0.0126332
Heightened Def Con from 0.0126332 to 0.0126332
Heightened Def Con from 0.0126332 to 0.0126332
Heightened Def Con from 0.0126332 to 0.0126332
Heightened Def Con from 0.0126332 to 0.0126332
Heightened Def Con from 0.0126332 to 0.0126332
Heightened Def Con from 0.0126332 to 0.0126332
Heightened Def Con from 0.0126332 to 0.0126332
Heightened Def Con from 0.0126332 to 0.0126332
Heightened Def Con from 0.0126332 to 0.0126332
Heightened Def Con from 0.0126332 to 0.0126332
Heightened Def Con from 0.0126332 to 0.0126332
Heightened Def Con from 0.0126332 to 0.0126332
Heightened Def Con from 0.0126332 to 0.0126332
Heightened Def Con from 0.0126332 to 0.0126332
Heightened Def Con from 0.0126332 to 0.0126332
Heightened Def Con from 0.0126332 to 0.0126332
Heightened Def Con from 0.0126332 to 0.0126332
Heightened Def Con from 0.0126332 to 0.0126332
Heightened Def Con from 0.0126332 to 0.0126332
Heightened Def Con from 0.0126332 to 0.0126332
Heightened Def Con from 0.0126332 to 0.0126332
Heightened Def Con from 0.0126332 to 0.0126332
Heightened Def Con from 0.0126332 to 0.0126332
Heightened Def Con from 0.0126332 to 0.0126332
Heightened Def Con from 0.0126332 to 0.0126332
Heightened Def Con from 0.0126332 to 0.0126332
Heightened Def Con from 0.0126332 to 0.0126332
Heightened Def Con from 0.0126332 to 0.0126332
Heightened Def Con from 0.0126332 to 0.0126332
Heightened Def Con from 0.0126332 to 0.0126332
Heightened Def Con from 0.0126332 to 0.0126332
Heightened Def Con from 0.0126332 to 0.0126332
Heightened Def Con from 0.0126332 to 0.0126332
Heightened Def Con from 0.0126332 to 0.0126332
Heightened Def Con from 0.0126332 to 0.0126332
Heightened Def Con from 0.0126332 to 0.0126332
Heightened Def Con from 0.0126332 to 0.0126332
Heightened Def Con from 0.0126332 to 0.0126332
Heightened Def Con from 0.0126332 to 0.0126332
Heightened Def Con from 0.0126332 to 0.0126332
Heightened Def Con from 0.0126332 to 0.0126332
Heightened Def Con from 0.0126332 to 0.0126332
Heightened Def Con from 0.0126332 to 0.0126332
Heightened Def Con from 0.0126332 to 0.0126332
Heightened Def Con from 0.0126332 to 0.0126332
Heightened Def Con from 0.0126332 to 0.0126332
Heightened Def Con from 0.0126332 to 0.0126332
Heightened Def Con from 0.0126332 to 0.0126332
Heightened Def Con from 0.0126332 to 0.0126332
Heightened Def Con from 0.0126332 to 0.0126332
Heightened Def Con from 0.0126332 to 0.0126332
Heightened Def Con from 0.0126332 to 0.0126332
Heightened Def Con from 0.0126332 to 0.0126332
Heightened Def Con from 0.0126332 to 0.0126332
Heightened Def Con from 0.0126332 to 0.0126332
Heightened Def Con from 0.0126332 to 0.0126332
Heightened Def Con from 0.0126332 to 0.0126332
Heightened Def Con from 0.0126332 to 0.0126332
Heightened Def Con from 0.0126332 to 0.0126332
Heightened Def Con from 0.0126332 to 0.0126332
Heightened Def Con from 0.0126332 to 0.0126332
Heightened Def Con from 0.0126332 to 0.0126332
Heightened Def Con from 0.0126332 to 0.0126332
Heightened Def Con from 0.0126332 to 0.0126332
Heightened Def Con from 0.0126332 to 0.0126332
Heightened Def Con from 0.0126332 to 0.0126332
Heightened Def Con from 0.0126332 to 0.0126332
Heightened Def Con from 0.0126332 to 0.0126332
Heightened Def Con from 0.0126332 to 0.0126332
Heightened Def Con from 0.0126332 to 0.0126332
Heightened Def Con from 0.0126332 to 0.0126332
Heightened Def Con from 0.0126332 to 0.0126332
Heightened Def Con from 0.0126332 to 0.0126332
Heightened Def Con from 0.0126332 to 0.0126332
Heightened Def Con from 0.0126332 to 0.0126332
Heightened Def Con from 0.0126332 to 0.0126332
Heightened Def Con from 0.0126332 to 0.0126332
Heightened Def Con from 0.0126332 to 0.0126332
Heightened Def Con from 0.0126332 to 0.0126332
Heightened Def Con from 0.0126332 to 0.0126332
Heightened Def Con from 0.0126332 to 0.0126332
Heightened Def Con from 0.0126332 to 0.0126332
Heightened Def Con from 0.0126332 to 0.0126332
Heightened Def Con from 0.0126332 to 0.0126332
Heightened Def Con from 0.0126332 to 0.0126332
Heightened Def Con from 0.0126332 to 0.0126332
Heightened Def Con from 0.0126332 to 0.0126332
Heightened Def Con from 0.0126332 to 0.0126332
Heightened Def Con from 0.0126332 to 0.0126332
Heightened Def Con from 0.0126332 to 0.0126332
Heightened Def Con from 0.0126332 to 0.0126332
Heightened Def Con from 0.0126332 to 0.0126332
Heightened Def Con from 0.0126332 to 0.0126332
Heightened Def Con from 0.0126332 to 0.0126332
Heightened Def Con from 0.0126332 to 0.0126332
Heightened Def Con from 0.0126332 to 0.0126332
Heightened Def Con from 0.0126332 to 0.0126332
Heightened Def Con from 0.0126332 to 0.0126332
Heightened Def Con from 0.0126332 to 0.0126332
Heightened Def Con from 0.0126332 to 0.0126332
Heightened Def Con from 0.0126332 to 0.0126332
Heightened Def Con from 0.0126332 to 0.0126332
Heightened Def Con from 0.0126332 to 0.0126332
Heightened Def Con from 0.0126332 to 0.0126332
Heightened Def Con from 0.0126332 to 0.0126332
Heightened Def Con from 0.0126332 to 0.0126332
Heightened Def Con from 0.0126332 to 0.0126332
Heightened Def Con from 0.0126332 to 0.0126332
Heightened Def Con from 0.0126332 to 0.0126332
Heightened Def Con from 0.0126332 to 0.0126332
Heightened Def Con from 0.0126332 to 0.0126332
Heightened Def Con from 0.0126332 to 0.0126332
Heightened Def Con from 0.0126332 to 0.0126332
Heightened Def Con from 0.0126332 to 0.0126332
Heightened Def Con from 0.0126332 to 0.0126332
Heightened Def Con from 0.0126332 to 0.0126332
Heightened Def Con from 0.0126332 to 0.0126332
Heightened Def Con from 0.0126332 to 0.0126332
Heightened Def Con from 0.0126332 to 0.0126332
Heightened Def Con from 0.0126332 to 0.0126332
Heightened Def Con from 0.0126332 to 0.0126332
Heightened Def Con from 0.0126332 to 0.0126332
Heightened Def Con from 0.0126332 to 0.0126332
Heightened Def Con from 0.0126332 to 0.0126332
Heightened Def Con from 0.0126332 to 0.0126332
Heightened Def Con from 0.0126332 to 0.0126332
Heightened Def Con from 0.0126332 to 0.0126332
Heightened Def Con from 0.0126332 to 0.0126332
Heightened Def Con from 0.0126332 to 0.0126332
Heightened Def Con from 0.0126332 to 0.0126332
Heightened Def Con from 0.0126332 to 0.0126332
Heightened Def Con from 0.0126332 to 0.0126332
Heightened Def Con from 0.0126332 to 0.0126332
Heightened Def Con from 0.0126332 to 0.0126332
Heightened Def Con from 0.0126332 to 0.0126332
Heightened Def Con from 0.0126332 to 0.0126332
Heightened Def Con from 0.0126332 to 0.0126332
Heightened Def Con from 0.0126332 to 0.0126332
Heightened Def Con from 0.0126332 to 0.0126332
Heightened Def Con from 0.0126332 to 0.0126332
Heightened Def Con from 0.0126332 to 0.0126332
Heightened Def Con from 0.0126332 to 0.0126332
Heightened Def Con from 0.0126332 to 0.0126332
Heightened Def Con from 0.0126332 to 0.0126332
Heightened Def Con from 0.0126332 to 0.0126332
Heightened Def Con from 0.0126332 to 0.0126332
Heightened Def Con from 0.0126332 to 0.0126332
Heightened Def Con from 0.0126332 to 0.0126332
Heightened Def Con from 0.0126332 to 0.0126332
Heightened Def Con from 0.0126332 to 0.0126332
Heightened Def Con from 0.0126332 to 0.0126332
Heightened Def Con from 0.0126332 to 0.0126332
Heightened Def Con from 0.0126332 to 0.0126332
Heightened Def Con from 0.0126332 to 0.0126332
Heightened Def Con from 0.0126332 to 0.0126332
Heightened Def Con from 0.0126332 to 0.0126332
Heightened Def Con from 0.0126332 to 0.0126332
Heightened Def Con from 0.0126332 to 0.0126332
Heightened Def Con from 0.0126332 to 0.0126332
Heightened Def Con from 0.0126332 to 0.0126332
Heightened Def Con from 0.0126332 to 0.0126332
Heightened Def Con from 0.0126332 to 0.0126332
Heightened Def Con from 0.0126332 to 0.0126332
Heightened Def Con from 0.0126332 to 0.0126332
Heightened Def Con from 0.0126332 to 0.0126332
Heightened Def Con from 0.0126332 to 0.0126332
Heightened Def Con from 0.0126332 to 0.0126332
Heightened Def Con from 0.0126332 to 0.0126332
Heightened Def Con from 0.0126332 to 0.0126332
Heightened Def Con from 0.0126332 to 0.0126332
Heightened Def Con from 0.0126332 to 0.0126332
Heightened Def Con from 0.0126332 to 0.0126332
Heightened Def Con from 0.0126332 to 0.0126332
Heightened Def Con from 0.0126332 to 0.0126332
Heightened Def Con from 0.0126332 to 0.0126332
Heightened Def Con from 0.0126332 to 0.0126332
Heightened Def Con from 0.0126332 to 0.0126332
Heightened Def Con from 0.0126332 to 0.0126332
Heightened Def Con from 0.0126332 to 0.0126332
Heightened Def Con from 0.0126332 to 0.0126332
Heightened Def Con from 0.0126332 to 0.0126332
Heightened Def Con from 0.0126332 to 0.0126332
Heightened Def Con from 0.0126332 to 0.0126332
Heightened Def Con from 0.0126332 to 0.0126332
Heightened Def Con from 0.0126332 to 0.0126332
Heightened Def Con from 0.0126332 to 0.0126332
Heightened Def Con from 0.0126332 to 0.0126332
Heightened Def Con from 0.0126332 to 0.0126332
Heightened Def Con from 0.0126332 to 0.0126332
Heightened Def Con from 0.0126332 to 0.0126332
Heightened Def Con from 0.0126332 to 0.0126332
Heightened Def Con from 0.0126332 to 0.0126332
Heightened Def Con from 0.0126332 to 0.0126332
Heightened Def Con from 0.0126332 to 0.0126332
Heightened Def Con from 0.0126332 to 0.0126332
Heightened Def Con from 0.0126332 to 0.0126332
Heightened Def Con from 0.0126332 to 0.0126332
Heightened Def Con from 0.0126332 to 0.0126332
Heightened Def Con from 0.0126332 to 0.0126332
Heightened Def Con from 0.0126332 to 0.0126332
Heightened Def Con from 0.0126332 to 0.0126332
Heightened Def Con from 0.0126332 to 0.0126332
Heightened Def Con from 0.0126332 to 0.0126332
Heightened Def Con from 0.0126333 to 0.0126333
Heightened Def Con from 0.0126333 to 0.0126333
Heightened Def Con from 0.0126333 to 0.0126333
Heightened Def Con from 0.0126333 to 0.0126333
Heightened Def Con from 0.0126333 to 0.0126333
Heightened Def Con from 0.0126333 to 0.0126333
Heightened Def Con from 0.0126333 to 0.0126333
Heightened Def Con from 0.0126333 to 0.0126333
Heightened Def Con from 0.0126333 to 0.0126333
Heightened Def Con from 0.0126333 to 0.0126333
Heightened Def Con from 0.0126333 to 0.0126333
Heightened Def Con from 0.0126333 to 0.0126333
Heightened Def Con from 0.0126333 to 0.0126333
Heightened Def Con from 0.0126333 to 0.0126333
Heightened Def Con from 0.0126333 to 0.0126333
Heightened Def Con from 0.0126333 to 0.0126333
Heightened Def Con from 0.0126333 to 0.0126333
Heightened Def Con from 0.0126333 to 0.0126333
Heightened Def Con from 0.0126333 to 0.0126333
Heightened Def Con from 0.0126333 to 0.0126333
Heightened Def Con from 0.0126333 to 0.0126333
Heightened Def Con from 0.0126333 to 0.0126333
Heightened Def Con from 0.0126333 to 0.0126333
Heightened Def Con from 0.0126333 to 0.0126333
Heightened Def Con from 0.0126333 to 0.0126333
Heightened Def Con from 0.0126333 to 0.0126333
Heightened Def Con from 0.0126333 to 0.0126333
Heightened Def Con from 0.0126333 to 0.0126333
Heightened Def Con from 0.0126333 to 0.0126333
Heightened Def Con from 0.0126333 to 0.0126333
Heightened Def Con from 0.0126333 to 0.0126333
Heightened Def Con from 0.0126333 to 0.0126333
Heightened Def Con from 0.0126333 to 0.0126333
Heightened Def Con from 0.0126333 to 0.0126333
Heightened Def Con from 0.0126333 to 0.0126333
Heightened Def Con from 0.0126333 to 0.0126333
Heightened Def Con from 0.0126333 to 0.0126333
Heightened Def Con from 0.0126333 to 0.0126333
Heightened Def Con from 0.0126333 to 0.0126333
Heightened Def Con from 0.0126333 to 0.0126333
Heightened Def Con from 0.0126333 to 0.0126333
Heightened Def Con from 0.0126333 to 0.0126333
Heightened Def Con from 0.0126333 to 0.0126333
Heightened Def Con from 0.0126333 to 0.0126333
Heightened Def Con from 0.0126333 to 0.0126333
Heightened Def Con from 0.0126333 to 0.0126333
Heightened Def Con from 0.0126333 to 0.0126333
Heightened Def Con from 0.0126333 to 0.0126333
Heightened Def Con from 0.0126333 to 0.0126333
Heightened Def Con from 0.0126333 to 0.0126333
Heightened Def Con from 0.0126333 to 0.0126333
Heightened Def Con from 0.0126333 to 0.0126333
Heightened Def Con from 0.0126333 to 0.0126333
Heightened Def Con from 0.0126333 to 0.0126333
Heightened Def Con from 0.0126333 to 0.0126333
Heightened Def Con from 0.0126333 to 0.0126333
Heightened Def Con from 0.0126333 to 0.0126333
Heightened Def Con from 0.0126333 to 0.0126333
Heightened Def Con from 0.0126333 to 0.0126333
Heightened Def Con from 0.0126333 to 0.0126333
Heightened Def Con from 0.0126333 to 0.0126333
Heightened Def Con from 0.0126333 to 0.0126333
Heightened Def Con from 0.0126333 to 0.0126333
Heightened Def Con from 0.0126333 to 0.0126333
Heightened Def Con from 0.0126333 to 0.0126333
Heightened Def Con from 0.0126333 to 0.0126333
Heightened Def Con from 0.0126333 to 0.0126333
Heightened Def Con from 0.0126333 to 0.0126333
Heightened Def Con from 0.0126333 to 0.0126333
Heightened Def Con from 0.0126333 to 0.0126333
Heightened Def Con from 0.0126333 to 0.0126333
Heightened Def Con from 0.0126333 to 0.0126333
Heightened Def Con from 0.0126333 to 0.0126333
Heightened Def Con from 0.0126333 to 0.0126333
Heightened Def Con from 0.0126333 to 0.0126333
Heightened Def Con from 0.0126333 to 0.0126333
Heightened Def Con from 0.0126333 to 0.0126333
Heightened Def Con from 0.0126333 to 0.0126333
Heightened Def Con from 0.0126333 to 0.0126333
Heightened Def Con from 0.0126333 to 0.0126333
Heightened Def Con from 0.0126333 to 0.0126333
Heightened Def Con from 0.0126333 to 0.0126333
Heightened Def Con from 0.0126333 to 0.0126333
Heightened Def Con from 0.0126333 to 0.0126333
Heightened Def Con from 0.0126333 to 0.0126333
Heightened Def Con from 0.0126333 to 0.0126333
Heightened Def Con from 0.0126333 to 0.0126333
Heightened Def Con from 0.0126333 to 0.0126333
Heightened Def Con from 0.0126333 to 0.0126333
Heightened Def Con from 0.0126333 to 0.0126333
Heightened Def Con from 0.0126333 to 0.0126333
Heightened Def Con from 0.0126333 to 0.0126333
Heightened Def Con from 0.0126333 to 0.0126333
Heightened Def Con from 0.0126333 to 0.0126333
Heightened Def Con from 0.0126333 to 0.0126333
Heightened Def Con from 0.0126333 to 0.0126333
Heightened Def Con from 0.0126333 to 0.0126333
Heightened Def Con from 0.0126333 to 0.0126333
Heightened Def Con from 0.0126333 to 0.0126333
Heightened Def Con from 0.0126333 to 0.0126333
Heightened Def Con from 0.0126333 to 0.0126333
Heightened Def Con from 0.0126333 to 0.0126333
Heightened Def Con from 0.0126333 to 0.0126333
Heightened Def Con from 0.0126333 to 0.0126333
Heightened Def Con from 0.0126333 to 0.0126333
Heightened Def Con from 0.0126333 to 0.0126333
Heightened Def Con from 0.0126333 to 0.0126333
Heightened Def Con from 0.0126333 to 0.0126333
Heightened Def Con from 0.0126333 to 0.0126333
Heightened Def Con from 0.0126333 to 0.0126333
Heightened Def Con from 0.0126333 to 0.0126333
Heightened Def Con from 0.0126333 to 0.0126333
Heightened Def Con from 0.0126333 to 0.0126333
Heightened Def Con from 0.0126333 to 0.0126333
Heightened Def Con from 0.0126333 to 0.0126333
Heightened Def Con from 0.0126333 to 0.0126333
Heightened Def Con from 0.0126333 to 0.0126333
Heightened Def Con from 0.0126333 to 0.0126333
Heightened Def Con from 0.0126333 to 0.0126333
Heightened Def Con from 0.0126333 to 0.0126333
Heightened Def Con from 0.0126333 to 0.0126333
Heightened Def Con from 0.0126333 to 0.0126333
Heightened Def Con from 0.0126333 to 0.0126333
Heightened Def Con from 0.0126333 to 0.0126333
Heightened Def Con from 0.0126333 to 0.0126333
Heightened Def Con from 0.0126333 to 0.0126333
Heightened Def Con from 0.0126333 to 0.0126333
Heightened Def Con from 0.0126333 to 0.0126333
Heightened Def Con from 0.0126333 to 0.0126333
Heightened Def Con from 0.0126333 to 0.0126333
Heightened Def Con from 0.0126333 to 0.0126333
Heightened Def Con from 0.0126333 to 0.0126333
Heightened Def Con from 0.0126333 to 0.0126333
Heightened Def Con from 0.0126333 to 0.0126333
Heightened Def Con from 0.0126333 to 0.0126333
Heightened Def Con from 0.0126333 to 0.0126333
Heightened Def Con from 0.0126333 to 0.0126333
Heightened Def Con from 0.0126333 to 0.0126333
Heightened Def Con from 0.0126333 to 0.0126333
Heightened Def Con from 0.0126333 to 0.0126333
Heightened Def Con from 0.0126333 to 0.0126333
Heightened Def Con from 0.0126333 to 0.0126333
Heightened Def Con from 0.0126333 to 0.0126333
Heightened Def Con from 0.0126333 to 0.0126333
Heightened Def Con from 0.0126333 to 0.0126333
Heightened Def Con from 0.0126333 to 0.0126333
Heightened Def Con from 0.0126333 to 0.0126333
Heightened Def Con from 0.0126333 to 0.0126333
Heightened Def Con from 0.0126333 to 0.0126333
Heightened Def Con from 0.0126333 to 0.0126333
Heightened Def Con from 0.0126333 to 0.0126333
Heightened Def Con from 0.0126333 to 0.0126333
Heightened Def Con from 0.0126333 to 0.0126333
Heightened Def Con from 0.0126333 to 0.0126333
Heightened Def Con from 0.0126333 to 0.0126333
Heightened Def Con from 0.0126333 to 0.0126333
Heightened Def Con from 0.0126333 to 0.0126333
Heightened Def Con from 0.0126333 to 0.0126333
Heightened Def Con from 0.0126333 to 0.0126333
Heightened Def Con from 0.0126333 to 0.0126333
Heightened Def Con from 0.0126333 to 0.0126333
Heightened Def Con from 0.0126333 to 0.0126333
Heightened Def Con from 0.0126333 to 0.0126333
Heightened Def Con from 0.0126333 to 0.0126333
Heightened Def Con from 0.0126333 to 0.0126333
Heightened Def Con from 0.0126333 to 0.0126333
Heightened Def Con from 0.0126333 to 0.0126333
Heightened Def Con from 0.0126333 to 0.0126333
Heightened Def Con from 0.0126333 to 0.0126333
Heightened Def Con from 0.0126333 to 0.0126333
Heightened Def Con from 0.0126333 to 0.0126333
Heightened Def Con from 0.0126333 to 0.0126333
Heightened Def Con from 0.0126333 to 0.0126333
Heightened Def Con from 0.0126333 to 0.0126333
Heightened Def Con from 0.0126333 to 0.0126333
Heightened Def Con from 0.0126333 to 0.0126333
Heightened Def Con from 0.0126333 to 0.0126333
Heightened Def Con from 0.0126333 to 0.0126333
Heightened Def Con from 0.0126333 to 0.0126333
Heightened Def Con from 0.0126333 to 0.0126333
Heightened Def Con from 0.0126333 to 0.0126333
Heightened Def Con from 0.0126333 to 0.0126333
Heightened Def Con from 0.0126333 to 0.0126333
Heightened Def Con from 0.0126333 to 0.0126333
Heightened Def Con from 0.0126333 to 0.0126333
Heightened Def Con from 0.0126333 to 0.0126333
Heightened Def Con from 0.0126333 to 0.0126333
Heightened Def Con from 0.0126333 to 0.0126333
Heightened Def Con from 0.0126333 to 0.0126333
Heightened Def Con from 0.0126333 to 0.0126333
Heightened Def Con from 0.0126333 to 0.0126333
Heightened Def Con from 0.0126333 to 0.0126333
Heightened Def Con from 0.0126333 to 0.0126333
Heightened Def Con from 0.0126333 to 0.0126333
Heightened Def Con from 0.0126333 to 0.0126333
Heightened Def Con from 0.0126333 to 0.0126333
Heightened Def Con from 0.0126333 to 0.0126333
Heightened Def Con from 0.0126333 to 0.0126333
Heightened Def Con from 0.0126333 to 0.0126333
Heightened Def Con from 0.0126333 to 0.0126333
Heightened Def Con from 0.0126333 to 0.0126333
Heightened Def Con from 0.0126333 to 0.0126333
Heightened Def Con from 0.0126333 to 0.0126333
Heightened Def Con from 0.0126333 to 0.0126333
Heightened Def Con from 0.0126333 to 0.0126333
Heightened Def Con from 0.0126333 to 0.0126333
Heightened Def Con from 0.0126333 to 0.0126333
Heightened Def Con from 0.0126333 to 0.0126333
Heightened Def Con from 0.0126333 to 0.0126333
Heightened Def Con from 0.0126333 to 0.0126333
Heightened Def Con from 0.0126333 to 0.0126333
Heightened Def Con from 0.0126333 to 0.0126333
Heightened Def Con from 0.0126333 to 0.0126333
Heightened Def Con from 0.0126333 to 0.0126333
Heightened Def Con from 0.0126333 to 0.0126333
Heightened Def Con from 0.0126333 to 0.0126333
Heightened Def Con from 0.0126333 to 0.0126333
Heightened Def Con from 0.0126333 to 0.0126333
Heightened Def Con from 0.0126333 to 0.0126333
Heightened Def Con from 0.0126333 to 0.0126333
Heightened Def Con from 0.0126333 to 0.0126333
Heightened Def Con from 0.0126333 to 0.0126333
Heightened Def Con from 0.0126333 to 0.0126333
Heightened Def Con from 0.0126333 to 0.0126333
Heightened Def Con from 0.0126333 to 0.0126333
Heightened Def Con from 0.0126333 to 0.0126333
Heightened Def Con from 0.0126333 to 0.0126333
Heightened Def Con from 0.0126333 to 0.0126333
Heightened Def Con from 0.0126333 to 0.0126333
Heightened Def Con from 0.0126333 to 0.0126333
Heightened Def Con from 0.0126333 to 0.0126333
Heightened Def Con from 0.0126333 to 0.0126333
Heightened Def Con from 0.0126333 to 0.0126333
Heightened Def Con from 0.0126333 to 0.0126333
Heightened Def Con from 0.0126333 to 0.0126333
Heightened Def Con from 0.0126333 to 0.0126333
Heightened Def Con from 0.0126333 to 0.0126333
Heightened Def Con from 0.0126333 to 0.0126333
Heightened Def Con from 0.0126333 to 0.0126333
Heightened Def Con from 0.0126333 to 0.0126333
Heightened Def Con from 0.0126333 to 0.0126333
Heightened Def Con from 0.0126333 to 0.0126333
Heightened Def Con from 0.0126333 to 0.0126333
Heightened Def Con from 0.0126333 to 0.0126333
Heightened Def Con from 0.0126333 to 0.0126333
Heightened Def Con from 0.0126333 to 0.0126333
Heightened Def Con from 0.0126333 to 0.0126333
Heightened Def Con from 0.0126333 to 0.0126333
Heightened Def Con from 0.0126333 to 0.0126333
Heightened Def Con from 0.0126333 to 0.0126333
Heightened Def Con from 0.0126333 to 0.0126333
Heightened Def Con from 0.0126333 to 0.0126333
Heightened Def Con from 0.0126333 to 0.0126333
Heightened Def Con from 0.0126333 to 0.0126333
Heightened Def Con from 0.0126333 to 0.0126333
Heightened Def Con from 0.0126333 to 0.0126333
Heightened Def Con from 0.0126333 to 0.0126333
Heightened Def Con from 0.0126333 to 0.0126333
Heightened Def Con from 0.0126333 to 0.0126333
Heightened Def Con from 0.0126333 to 0.0126333
Heightened Def Con from 0.0126333 to 0.0126333
Heightened Def Con from 0.0126333 to 0.0126333
Heightened Def Con from 0.0126333 to 0.0126333
Heightened Def Con from 0.0126333 to 0.0126333
Heightened Def Con from 0.0126333 to 0.0126333
Heightened Def Con from 0.0126333 to 0.0126333
Heightened Def Con from 0.0126333 to 0.0126333
Heightened Def Con from 0.0126333 to 0.0126333
Heightened Def Con from 0.0126333 to 0.0126333
Heightened Def Con from 0.0126333 to 0.0126333
Heightened Def Con from 0.0126333 to 0.0126333
Heightened Def Con from 0.0126333 to 0.0126333
Heightened Def Con from 0.0126333 to 0.0126333
Heightened Def Con from 0.0126333 to 0.0126333
Heightened Def Con from 0.0126333 to 0.0126333
Heightened Def Con from 0.0126333 to 0.0126333
Heightened Def Con from 0.0126333 to 0.0126333
Heightened Def Con from 0.0126333 to 0.0126333
Heightened Def Con from 0.0126333 to 0.0126333
Heightened Def Con from 0.0126333 to 0.0126333
Heightened Def Con from 0.0126333 to 0.0126333
Heightened Def Con from 0.0126333 to 0.0126333
Heightened Def Con from 0.0126333 to 0.0126333
Heightened Def Con from 0.0126333 to 0.0126333
Heightened Def Con from 0.0126333 to 0.0126333
Heightened Def Con from 0.0126333 to 0.0126333
Heightened Def Con from 0.0126333 to 0.0126333
Heightened Def Con from 0.0126333 to 0.0126333
Heightened Def Con from 0.0126333 to 0.0126333
Heightened Def Con from 0.0126333 to 0.0126333
Heightened Def Con from 0.0126333 to 0.0126333
Heightened Def Con from 0.0126333 to 0.0126333
Heightened Def Con from 0.0126333 to 0.0126333
Heightened Def Con from 0.0126333 to 0.0126333
Heightened Def Con from 0.0126333 to 0.0126333
Heightened Def Con from 0.0126333 to 0.0126333
Heightened Def Con from 0.0126333 to 0.0126333
Heightened Def Con from 0.0126333 to 0.0126333
Heightened Def Con from 0.0126333 to 0.0126333
Heightened Def Con from 0.0126333 to 0.0126333
Heightened Def Con from 0.0126333 to 0.0126333
Heightened Def Con from 0.0126333 to 0.0126333
Heightened Def Con from 0.0126333 to 0.0126333
Heightened Def Con from 0.0126333 to 0.0126333
Heightened Def Con from 0.0126333 to 0.0126333
Heightened Def Con from 0.0126333 to 0.0126333
Heightened Def Con from 0.0126333 to 0.0126333
Heightened Def Con from 0.0126333 to 0.0126333
Heightened Def Con from 0.0126333 to 0.0126333
Heightened Def Con from 0.0126334 to 0.0126334
Heightened Def Con from 0.0126334 to 0.0126334
Heightened Def Con from 0.0126334 to 0.0126334
Heightened Def Con from 0.0126334 to 0.0126334
Heightened Def Con from 0.0126334 to 0.0126334
Heightened Def Con from 0.0126334 to 0.0126334
Heightened Def Con from 0.0126334 to 0.0126334
Heightened Def Con from 0.0126334 to 0.0126334
Heightened Def Con from 0.0126334 to 0.0126334
Heightened Def Con from 0.0126334 to 0.0126334
Heightened Def Con from 0.0126334 to 0.0126334
Heightened Def Con from 0.0126334 to 0.0126334
Heightened Def Con from 0.0126334 to 0.0126334
Heightened Def Con from 0.0126334 to 0.0126334
Heightened Def Con from 0.0126334 to 0.0126334
Heightened Def Con from 0.0126334 to 0.0126334
Heightened Def Con from 0.0126334 to 0.0126334
Heightened Def Con from 0.0126334 to 0.0126334
Heightened Def Con from 0.0126334 to 0.0126334
Heightened Def Con from 0.0126334 to 0.0126334
Heightened Def Con from 0.0126334 to 0.0126334
Heightened Def Con from 0.0126334 to 0.0126334
Heightened Def Con from 0.0126334 to 0.0126334
Heightened Def Con from 0.0126334 to 0.0126334
Heightened Def Con from 0.0126334 to 0.0126334
Heightened Def Con from 0.0126334 to 0.0126334
Heightened Def Con from 0.0126334 to 0.0126334
Heightened Def Con from 0.0126334 to 0.0126334
Heightened Def Con from 0.0126334 to 0.0126334
Heightened Def Con from 0.0126334 to 0.0126334
Heightened Def Con from 0.0126334 to 0.0126334
Heightened Def Con from 0.0126334 to 0.0126334
Heightened Def Con from 0.0126334 to 0.0126334
Heightened Def Con from 0.0126334 to 0.0126334
Heightened Def Con from 0.0126334 to 0.0126334
Heightened Def Con from 0.0126334 to 0.0126334
Heightened Def Con from 0.0126334 to 0.0126334
Heightened Def Con from 0.0126334 to 0.0126334
Heightened Def Con from 0.0126334 to 0.0126334
Heightened Def Con from 0.0126334 to 0.0126334
Heightened Def Con from 0.0126334 to 0.0126334
Heightened Def Con from 0.0126334 to 0.0126334
Heightened Def Con from 0.0126334 to 0.0126334
Heightened Def Con from 0.0126334 to 0.0126334
Heightened Def Con from 0.0126334 to 0.0126334
Heightened Def Con from 0.0126334 to 0.0126334
Heightened Def Con from 0.0126334 to 0.0126334
Heightened Def Con from 0.0126334 to 0.0126334
Heightened Def Con from 0.0126334 to 0.0126334
Heightened Def Con from 0.0126334 to 0.0126334
Heightened Def Con from 0.0126334 to 0.0126334
Heightened Def Con from 0.0126334 to 0.0126334
Heightened Def Con from 0.0126334 to 0.0126334
Heightened Def Con from 0.0126334 to 0.0126334
Heightened Def Con from 0.0126334 to 0.0126334
Heightened Def Con from 0.0126334 to 0.0126334
Heightened Def Con from 0.0126334 to 0.0126334
Heightened Def Con from 0.0126334 to 0.0126334
Heightened Def Con from 0.0126334 to 0.0126334
Heightened Def Con from 0.0126334 to 0.0126334
Heightened Def Con from 0.0126334 to 0.0126334
Heightened Def Con from 0.0126334 to 0.0126334
Heightened Def Con from 0.0126334 to 0.0126334
Heightened Def Con from 0.0126334 to 0.0126334
Heightened Def Con from 0.0126334 to 0.0126334
Heightened Def Con from 0.0126334 to 0.0126334
Heightened Def Con from 0.0126334 to 0.0126334
Heightened Def Con from 0.0126334 to 0.0126334
Heightened Def Con from 0.0126334 to 0.0126334
Heightened Def Con from 0.0126334 to 0.0126334
Heightened Def Con from 0.0126334 to 0.0126334
Heightened Def Con from 0.0126334 to 0.0126334
Heightened Def Con from 0.0126334 to 0.0126334
Heightened Def Con from 0.0126334 to 0.0126334
Heightened Def Con from 0.0126334 to 0.0126334
Heightened Def Con from 0.0126334 to 0.0126334
Heightened Def Con from 0.0126334 to 0.0126334
Heightened Def Con from 0.0126334 to 0.0126334
Heightened Def Con from 0.0126334 to 0.0126334
Heightened Def Con from 0.0126334 to 0.0126334
Heightened Def Con from 0.0126334 to 0.0126334
Heightened Def Con from 0.0126334 to 0.0126334
Heightened Def Con from 0.0126334 to 0.0126334
Heightened Def Con from 0.0126334 to 0.0126334
Heightened Def Con from 0.0126334 to 0.0126334
Heightened Def Con from 0.0126334 to 0.0126334
Heightened Def Con from 0.0126334 to 0.0126334
Heightened Def Con from 0.0126334 to 0.0126334
Heightened Def Con from 0.0126334 to 0.0126334
Heightened Def Con from 0.0126334 to 0.0126334
Heightened Def Con from 0.0126334 to 0.0126334
Heightened Def Con from 0.0126334 to 0.0126334
Heightened Def Con from 0.0126334 to 0.0126334
Heightened Def Con from 0.0126334 to 0.0126334
Heightened Def Con from 0.0126334 to 0.0126334
Heightened Def Con from 0.0126334 to 0.0126334
Heightened Def Con from 0.0126334 to 0.0126334
Heightened Def Con from 0.0126334 to 0.0126334
Heightened Def Con from 0.0126334 to 0.0126334
Heightened Def Con from 0.0126334 to 0.0126334
Heightened Def Con from 0.0126334 to 0.0126334
Heightened Def Con from 0.0126334 to 0.0126334
Heightened Def Con from 0.0126334 to 0.0126334
Heightened Def Con from 0.0126334 to 0.0126334
Heightened Def Con from 0.0126334 to 0.0126334
Heightened Def Con from 0.0126334 to 0.0126334
Heightened Def Con from 0.0126334 to 0.0126334
Heightened Def Con from 0.0126334 to 0.0126334
Heightened Def Con from 0.0126334 to 0.0126334
Heightened Def Con from 0.0126334 to 0.0126334
Heightened Def Con from 0.0126334 to 0.0126334
Heightened Def Con from 0.0126334 to 0.0126334
Heightened Def Con from 0.0126334 to 0.0126334
Heightened Def Con from 0.0126334 to 0.0126334
Heightened Def Con from 0.0126334 to 0.0126334
Heightened Def Con from 0.0126334 to 0.0126334
Heightened Def Con from 0.0126334 to 0.0126334
Heightened Def Con from 0.0126334 to 0.0126334
Heightened Def Con from 0.0126334 to 0.0126334
Heightened Def Con from 0.0126334 to 0.0126334
Heightened Def Con from 0.0126334 to 0.0126334
Heightened Def Con from 0.0126334 to 0.0126334
Heightened Def Con from 0.0126334 to 0.0126334
Heightened Def Con from 0.0126334 to 0.0126334
Heightened Def Con from 0.0126334 to 0.0126334
Heightened Def Con from 0.0126334 to 0.0126334
Heightened Def Con from 0.0126334 to 0.0126334
Heightened Def Con from 0.0126334 to 0.0126334
Heightened Def Con from 0.0126334 to 0.0126334
Heightened Def Con from 0.0126334 to 0.0126334
Heightened Def Con from 0.0126334 to 0.0126334
Heightened Def Con from 0.0126334 to 0.0126334
Heightened Def Con from 0.0126334 to 0.0126334
Heightened Def Con from 0.0126334 to 0.0126334
Heightened Def Con from 0.0126334 to 0.0126334
Heightened Def Con from 0.0126334 to 0.0126334
Heightened Def Con from 0.0126334 to 0.0126334
Heightened Def Con from 0.0126334 to 0.0126334
Heightened Def Con from 0.0126334 to 0.0126334
Heightened Def Con from 0.0126334 to 0.0126334
Heightened Def Con from 0.0126334 to 0.0126334
Heightened Def Con from 0.0126334 to 0.0126334
Heightened Def Con from 0.0126334 to 0.0126334
Heightened Def Con from 0.0126334 to 0.0126334
Heightened Def Con from 0.0126334 to 0.0126334
Heightened Def Con from 0.0126334 to 0.0126334
Heightened Def Con from 0.0126334 to 0.0126334
Heightened Def Con from 0.0126334 to 0.0126334
Heightened Def Con from 0.0126334 to 0.0126334
Heightened Def Con from 0.0126334 to 0.0126334
Heightened Def Con from 0.0126334 to 0.0126334
Heightened Def Con from 0.0126334 to 0.0126334
Heightened Def Con from 0.0126334 to 0.0126334
Heightened Def Con from 0.0126334 to 0.0126334
Heightened Def Con from 0.0126334 to 0.0126334
Heightened Def Con from 0.0126334 to 0.0126334
Heightened Def Con from 0.0126334 to 0.0126334
Heightened Def Con from 0.0126334 to 0.0126334
Heightened Def Con from 0.0126334 to 0.0126334
Heightened Def Con from 0.0126334 to 0.0126334
Heightened Def Con from 0.0126334 to 0.0126334
Heightened Def Con from 0.0126334 to 0.0126334
Heightened Def Con from 0.0126334 to 0.0126334
Heightened Def Con from 0.0126334 to 0.0126334
Heightened Def Con from 0.0126334 to 0.0126334
Heightened Def Con from 0.0126334 to 0.0126334
Heightened Def Con from 0.0126334 to 0.0126334
Heightened Def Con from 0.0126334 to 0.0126334
Heightened Def Con from 0.0126334 to 0.0126334
Heightened Def Con from 0.0126334 to 0.0126334
Heightened Def Con from 0.0126334 to 0.0126334
Heightened Def Con from 0.0126334 to 0.0126334
Heightened Def Con from 0.0126334 to 0.0126334
Heightened Def Con from 0.0126334 to 0.0126334
Heightened Def Con from 0.0126334 to 0.0126334
Heightened Def Con from 0.0126334 to 0.0126334
Heightened Def Con from 0.0126334 to 0.0126334
Heightened Def Con from 0.0126334 to 0.0126334
Heightened Def Con from 0.0126334 to 0.0126334
Heightened Def Con from 0.0126334 to 0.0126334
Heightened Def Con from 0.0126334 to 0.0126334
Heightened Def Con from 0.0126334 to 0.0126334
Heightened Def Con from 0.0126334 to 0.0126334
Heightened Def Con from 0.0126334 to 0.0126334
Heightened Def Con from 0.0126334 to 0.0126334
Heightened Def Con from 0.0126334 to 0.0126334
Heightened Def Con from 0.0126334 to 0.0126334
Heightened Def Con from 0.0126334 to 0.0126334
Heightened Def Con from 0.0126334 to 0.0126334
Heightened Def Con from 0.0126334 to 0.0126334
Heightened Def Con from 0.0126334 to 0.0126334
Heightened Def Con from 0.0126334 to 0.0126334
Heightened Def Con from 0.0126334 to 0.0126334
Heightened Def Con from 0.0126334 to 0.0126334
Heightened Def Con from 0.0126334 to 0.0126334
Heightened Def Con from 0.0126334 to 0.0126334
Heightened Def Con from 0.0126334 to 0.0126334
Heightened Def Con from 0.0126334 to 0.0126334
Heightened Def Con from 0.0126334 to 0.0126334
Heightened Def Con from 0.0126334 to 0.0126334
Heightened Def Con from 0.0126334 to 0.0126334
Heightened Def Con from 0.0126334 to 0.0126334
Heightened Def Con from 0.0126334 to 0.0126334
Heightened Def Con from 0.0126334 to 0.0126334
Heightened Def Con from 0.0126334 to 0.0126334
Heightened Def Con from 0.0126334 to 0.0126334
Heightened Def Con from 0.0126334 to 0.0126334
Heightened Def Con from 0.0126334 to 0.0126334
Heightened Def Con from 0.0126334 to 0.0126334
Heightened Def Con from 0.0126334 to 0.0126334
Heightened Def Con from 0.0126334 to 0.0126334
Heightened Def Con from 0.0126334 to 0.0126334
Heightened Def Con from 0.0126334 to 0.0126334
Heightened Def Con from 0.0126334 to 0.0126334
Heightened Def Con from 0.0126334 to 0.0126334
Heightened Def Con from 0.0126334 to 0.0126334
Heightened Def Con from 0.0126334 to 0.0126334
Heightened Def Con from 0.0126334 to 0.0126334
Heightened Def Con from 0.0126334 to 0.0126334
Heightened Def Con from 0.0126334 to 0.0126334
Heightened Def Con from 0.0126334 to 0.0126334
Heightened Def Con from 0.0126334 to 0.0126334
Heightened Def Con from 0.0126334 to 0.0126334
Heightened Def Con from 0.0126334 to 0.0126334
Heightened Def Con from 0.0126334 to 0.0126334
Heightened Def Con from 0.0126334 to 0.0126334
Heightened Def Con from 0.0126334 to 0.0126334
Heightened Def Con from 0.0126334 to 0.0126334
Heightened Def Con from 0.0126334 to 0.0126334
Heightened Def Con from 0.0126334 to 0.0126334
Heightened Def Con from 0.0126334 to 0.0126334
Heightened Def Con from 0.0126334 to 0.0126334
Heightened Def Con from 0.0126334 to 0.0126334
Heightened Def Con from 0.0126334 to 0.0126334
Heightened Def Con from 0.0126334 to 0.0126334
Heightened Def Con from 0.0126334 to 0.0126334
Heightened Def Con from 0.0126334 to 0.0126334
Heightened Def Con from 0.0126334 to 0.0126334
Heightened Def Con from 0.0126334 to 0.0126334
Heightened Def Con from 0.0126334 to 0.0126334
Heightened Def Con from 0.0126334 to 0.0126334
Heightened Def Con from 0.0126334 to 0.0126334
Heightened Def Con from 0.0126334 to 0.0126334
Heightened Def Con from 0.0126334 to 0.0126334
Heightened Def Con from 0.0126334 to 0.0126334
Heightened Def Con from 0.0126334 to 0.0126334
Heightened Def Con from 0.0126334 to 0.0126334
Heightened Def Con from 0.0126334 to 0.0126334
Heightened Def Con from 0.0126334 to 0.0126334
Heightened Def Con from 0.0126334 to 0.0126334
Heightened Def Con from 0.0126334 to 0.0126334
Heightened Def Con from 0.0126334 to 0.0126334
Heightened Def Con from 0.0126334 to 0.0126334
Heightened Def Con from 0.0126334 to 0.0126334
Heightened Def Con from 0.0126334 to 0.0126334
Heightened Def Con from 0.0126334 to 0.0126334
Heightened Def Con from 0.0126334 to 0.0126334
Heightened Def Con from 0.0126334 to 0.0126334
Heightened Def Con from 0.0126334 to 0.0126334
Heightened Def Con from 0.0126334 to 0.0126334
Heightened Def Con from 0.0126334 to 0.0126334
Heightened Def Con from 0.0126334 to 0.0126334
Heightened Def Con from 0.0126335 to 0.0126335
Heightened Def Con from 0.0126335 to 0.0126335
Heightened Def Con from 0.0126335 to 0.0126335
Heightened Def Con from 0.0126335 to 0.0126335
Heightened Def Con from 0.0126335 to 0.0126335
Heightened Def Con from 0.0126335 to 0.0126335
Heightened Def Con from 0.0126335 to 0.0126335
Heightened Def Con from 0.0126335 to 0.0126335
Heightened Def Con from 0.0126335 to 0.0126335
Heightened Def Con from 0.0126335 to 0.0126335
Heightened Def Con from 0.0126335 to 0.0126335
Heightened Def Con from 0.0126335 to 0.0126335
Heightened Def Con from 0.0126335 to 0.0126335
Heightened Def Con from 0.0126335 to 0.0126335
Heightened Def Con from 0.0126335 to 0.0126335
Heightened Def Con from 0.0126335 to 0.0126335
Heightened Def Con from 0.0126335 to 0.0126335
Heightened Def Con from 0.0126335 to 0.0126335
Heightened Def Con from 0.0126335 to 0.0126335
Heightened Def Con from 0.0126335 to 0.0126335
Heightened Def Con from 0.0126335 to 0.0126335
Heightened Def Con from 0.0126335 to 0.0126335
Heightened Def Con from 0.0126335 to 0.0126335
Heightened Def Con from 0.0126335 to 0.0126335
Heightened Def Con from 0.0126335 to 0.0126335
Heightened Def Con from 0.0126335 to 0.0126335
Heightened Def Con from 0.0126335 to 0.0126335
Heightened Def Con from 0.0126335 to 0.0126335
Heightened Def Con from 0.0126335 to 0.0126335
Heightened Def Con from 0.0126335 to 0.0126335
Heightened Def Con from 0.0126335 to 0.0126335
Heightened Def Con from 0.0126335 to 0.0126335
Heightened Def Con from 0.0126335 to 0.0126335
Heightened Def Con from 0.0126335 to 0.0126335
Heightened Def Con from 0.0126335 to 0.0126335
Heightened Def Con from 0.0126335 to 0.0126335
Heightened Def Con from 0.0126335 to 0.0126335
Heightened Def Con from 0.0126335 to 0.0126335
Heightened Def Con from 0.0126335 to 0.0126335
Heightened Def Con from 0.0126335 to 0.0126335
Heightened Def Con from 0.0126335 to 0.0126335
Heightened Def Con from 0.0126335 to 0.0126335
Heightened Def Con from 0.0126335 to 0.0126335
Heightened Def Con from 0.0126335 to 0.0126335
Heightened Def Con from 0.0126335 to 0.0126335
Heightened Def Con from 0.0126335 to 0.0126335
Heightened Def Con from 0.0126335 to 0.0126335
Heightened Def Con from 0.0126335 to 0.0126335
Heightened Def Con from 0.0126335 to 0.0126335
Heightened Def Con from 0.0126335 to 0.0126335
Heightened Def Con from 0.0126335 to 0.0126335
Heightened Def Con from 0.0126335 to 0.0126335
Heightened Def Con from 0.0126335 to 0.0126335
Heightened Def Con from 0.0126335 to 0.0126335
Heightened Def Con from 0.0126335 to 0.0126335
Heightened Def Con from 0.0126335 to 0.0126335
Heightened Def Con from 0.0126335 to 0.0126335
Heightened Def Con from 0.0126335 to 0.0126335
Heightened Def Con from 0.0126335 to 0.0126335
Heightened Def Con from 0.0126335 to 0.0126335
Heightened Def Con from 0.0126335 to 0.0126335
Heightened Def Con from 0.0126335 to 0.0126335
Heightened Def Con from 0.0126335 to 0.0126335
Heightened Def Con from 0.0126335 to 0.0126335
Heightened Def Con from 0.0126335 to 0.0126335
Heightened Def Con from 0.0126335 to 0.0126335
Heightened Def Con from 0.0126335 to 0.0126335
Heightened Def Con from 0.0126335 to 0.0126335
Heightened Def Con from 0.0126335 to 0.0126335
Heightened Def Con from 0.0126335 to 0.0126335
Heightened Def Con from 0.0126335 to 0.0126335
Heightened Def Con from 0.0126335 to 0.0126335
Heightened Def Con from 0.0126335 to 0.0126335
Heightened Def Con from 0.0126335 to 0.0126335
Heightened Def Con from 0.0126335 to 0.0126335
Heightened Def Con from 0.0126335 to 0.0126335
Heightened Def Con from 0.0126335 to 0.0126335
Heightened Def Con from 0.0126335 to 0.0126335
Heightened Def Con from 0.0126335 to 0.0126335
Heightened Def Con from 0.0126335 to 0.0126335
Heightened Def Con from 0.0126335 to 0.0126335
Heightened Def Con from 0.0126335 to 0.0126335
Heightened Def Con from 0.0126335 to 0.0126335
Heightened Def Con from 0.0126335 to 0.0126335
Heightened Def Con from 0.0126335 to 0.0126335
Heightened Def Con from 0.0126335 to 0.0126335
Heightened Def Con from 0.0126335 to 0.0126335
Heightened Def Con from 0.0126335 to 0.0126335
Heightened Def Con from 0.0126335 to 0.0126335
Heightened Def Con from 0.0126335 to 0.0126335
Heightened Def Con from 0.0126335 to 0.0126335
Heightened Def Con from 0.0126335 to 0.0126335
Heightened Def Con from 0.0126335 to 0.0126335
Heightened Def Con from 0.0126335 to 0.0126335
Heightened Def Con from 0.0126335 to 0.0126335
Heightened Def Con from 0.0126335 to 0.0126335
Heightened Def Con from 0.0126335 to 0.0126335
Heightened Def Con from 0.0126335 to 0.0126335
Heightened Def Con from 0.0126335 to 0.0126335
Heightened Def Con from 0.0126335 to 0.0126335
Heightened Def Con from 0.0126335 to 0.0126335
Heightened Def Con from 0.0126335 to 0.0126335
Heightened Def Con from 0.0126335 to 0.0126335
Heightened Def Con from 0.0126335 to 0.0126335
Heightened Def Con from 0.0126335 to 0.0126335
Heightened Def Con from 0.0126335 to 0.0126335
Heightened Def Con from 0.0126335 to 0.0126335
Heightened Def Con from 0.0126335 to 0.0126335
Heightened Def Con from 0.0126335 to 0.0126335
Heightened Def Con from 0.0126335 to 0.0126335
Heightened Def Con from 0.0126335 to 0.0126335
Heightened Def Con from 0.0126335 to 0.0126335
Heightened Def Con from 0.0126335 to 0.0126335
Heightened Def Con from 0.0126335 to 0.0126335
Heightened Def Con from 0.0126335 to 0.0126335
Heightened Def Con from 0.0126335 to 0.0126335
Heightened Def Con from 0.0126335 to 0.0126335
Heightened Def Con from 0.0126335 to 0.0126335
Heightened Def Con from 0.0126335 to 0.0126335
Heightened Def Con from 0.0126335 to 0.0126335
Heightened Def Con from 0.0126335 to 0.0126335
Heightened Def Con from 0.0126335 to 0.0126335
Heightened Def Con from 0.0126335 to 0.0126335
Heightened Def Con from 0.0126335 to 0.0126335
Heightened Def Con from 0.0126335 to 0.0126335
Heightened Def Con from 0.0126335 to 0.0126335
Heightened Def Con from 0.0126335 to 0.0126335
Heightened Def Con from 0.0126335 to 0.0126335
Heightened Def Con from 0.0126335 to 0.0126335
Heightened Def Con from 0.0126335 to 0.0126335
Heightened Def Con from 0.0126335 to 0.0126335
Heightened Def Con from 0.0126335 to 0.0126335
Heightened Def Con from 0.0126335 to 0.0126335
Heightened Def Con from 0.0126335 to 0.0126335
Heightened Def Con from 0.0126335 to 0.0126335
Heightened Def Con from 0.0126335 to 0.0126335
Heightened Def Con from 0.0126335 to 0.0126335
Heightened Def Con from 0.0126335 to 0.0126335
Heightened Def Con from 0.0126335 to 0.0126335
Heightened Def Con from 0.0126335 to 0.0126335
Heightened Def Con from 0.0126335 to 0.0126335
Heightened Def Con from 0.0126335 to 0.0126335
Heightened Def Con from 0.0126335 to 0.0126335
Heightened Def Con from 0.0126335 to 0.0126335
Heightened Def Con from 0.0126335 to 0.0126335
Heightened Def Con from 0.0126335 to 0.0126335
Heightened Def Con from 0.0126335 to 0.0126335
Heightened Def Con from 0.0126335 to 0.0126335
Heightened Def Con from 0.0126335 to 0.0126335
Heightened Def Con from 0.0126335 to 0.0126335
Heightened Def Con from 0.0126335 to 0.0126335
Heightened Def Con from 0.0126335 to 0.0126335
Heightened Def Con from 0.0126335 to 0.0126335
Heightened Def Con from 0.0126335 to 0.0126335
Heightened Def Con from 0.0126335 to 0.0126335
Heightened Def Con from 0.0126335 to 0.0126335
Heightened Def Con from 0.0126335 to 0.0126335
Heightened Def Con from 0.0126335 to 0.0126335
Heightened Def Con from 0.0126335 to 0.0126335
Heightened Def Con from 0.0126335 to 0.0126335
Heightened Def Con from 0.0126335 to 0.0126335
Heightened Def Con from 0.0126335 to 0.0126335
Heightened Def Con from 0.0126335 to 0.0126335
Heightened Def Con from 0.0126335 to 0.0126335
Heightened Def Con from 0.0126335 to 0.0126335
Heightened Def Con from 0.0126335 to 0.0126335
Heightened Def Con from 0.0126335 to 0.0126335
Heightened Def Con from 0.0126335 to 0.0126335
Heightened Def Con from 0.0126335 to 0.0126335
Heightened Def Con from 0.0126335 to 0.0126335
Heightened Def Con from 0.0126335 to 0.0126335
Heightened Def Con from 0.0126335 to 0.0126335
Heightened Def Con from 0.0126335 to 0.0126335
Heightened Def Con from 0.0126335 to 0.0126335
Heightened Def Con from 0.0126335 to 0.0126335
Heightened Def Con from 0.0126335 to 0.0126335
Heightened Def Con from 0.0126335 to 0.0126335
Heightened Def Con from 0.0126335 to 0.0126335
Heightened Def Con from 0.0126335 to 0.0126335
Heightened Def Con from 0.0126335 to 0.0126335
Heightened Def Con from 0.0126335 to 0.0126335
Heightened Def Con from 0.0126335 to 0.0126335
Heightened Def Con from 0.0126335 to 0.0126335
Heightened Def Con from 0.0126335 to 0.0126335
Heightened Def Con from 0.0126335 to 0.0126335
Heightened Def Con from 0.0126335 to 0.0126335
Heightened Def Con from 0.0126335 to 0.0126335
Heightened Def Con from 0.0126335 to 0.0126335
Heightened Def Con from 0.0126335 to 0.0126335
Heightened Def Con from 0.0126335 to 0.0126335
Heightened Def Con from 0.0126335 to 0.0126335
Heightened Def Con from 0.0126335 to 0.0126335
Heightened Def Con from 0.0126335 to 0.0126335
Heightened Def Con from 0.0126335 to 0.0126335
Heightened Def Con from 0.0126335 to 0.0126335
Heightened Def Con from 0.0126335 to 0.0126335
Heightened Def Con from 0.0126335 to 0.0126335
Heightened Def Con from 0.0126335 to 0.0126335
Heightened Def Con from 0.0126335 to 0.0126335
Heightened Def Con from 0.0126335 to 0.0126335
Heightened Def Con from 0.0126335 to 0.0126335
Heightened Def Con from 0.0126335 to 0.0126335
Heightened Def Con from 0.0126335 to 0.0126335
Heightened Def Con from 0.0126335 to 0.0126335
Heightened Def Con from 0.0126335 to 0.0126335
Heightened Def Con from 0.0126335 to 0.0126335
Heightened Def Con from 0.0126335 to 0.0126335
Heightened Def Con from 0.0126335 to 0.0126335
Heightened Def Con from 0.0126335 to 0.0126335
Heightened Def Con from 0.0126335 to 0.0126335
Heightened Def Con from 0.0126335 to 0.0126335
Heightened Def Con from 0.0126335 to 0.0126335
Heightened Def Con from 0.0126335 to 0.0126335
Heightened Def Con from 0.0126335 to 0.0126335
Heightened Def Con from 0.0126335 to 0.0126335
Heightened Def Con from 0.0126335 to 0.0126335
Heightened Def Con from 0.0126335 to 0.0126335
Heightened Def Con from 0.0126335 to 0.0126335
Heightened Def Con from 0.0126335 to 0.0126335
Heightened Def Con from 0.0126335 to 0.0126335
Heightened Def Con from 0.0126335 to 0.0126335
Heightened Def Con from 0.0126335 to 0.0126335
Heightened Def Con from 0.0126335 to 0.0126335
Heightened Def Con from 0.0126335 to 0.0126335
Heightened Def Con from 0.0126335 to 0.0126335
Heightened Def Con from 0.0126335 to 0.0126335
Heightened Def Con from 0.0126335 to 0.0126335
Heightened Def Con from 0.0126335 to 0.0126335
Heightened Def Con from 0.0126335 to 0.0126335
Heightened Def Con from 0.0126335 to 0.0126335
Heightened Def Con from 0.0126335 to 0.0126335
Heightened Def Con from 0.0126335 to 0.0126335
Heightened Def Con from 0.0126335 to 0.0126335
Heightened Def Con from 0.0126335 to 0.0126335
Heightened Def Con from 0.0126335 to 0.0126335
Heightened Def Con from 0.0126335 to 0.0126335
Heightened Def Con from 0.0126335 to 0.0126335
Heightened Def Con from 0.0126335 to 0.0126335
Heightened Def Con from 0.0126335 to 0.0126335
Heightened Def Con from 0.0126335 to 0.0126335
Heightened Def Con from 0.0126335 to 0.0126335
Heightened Def Con from 0.0126335 to 0.0126335
Heightened Def Con from 0.0126335 to 0.0126335
Heightened Def Con from 0.0126335 to 0.0126335
Heightened Def Con from 0.0126335 to 0.0126335
Heightened Def Con from 0.0126335 to 0.0126335
Heightened Def Con from 0.0126335 to 0.0126335
Heightened Def Con from 0.0126335 to 0.0126335
Heightened Def Con from 0.0126335 to 0.0126335
Heightened Def Con from 0.0126335 to 0.0126335
Heightened Def Con from 0.0126335 to 0.0126335
Heightened Def Con from 0.0126335 to 0.0126335
Heightened Def Con from 0.0126335 to 0.0126335
Heightened Def Con from 0.0126335 to 0.0126335
Heightened Def Con from 0.0126335 to 0.0126335
Heightened Def Con from 0.0126335 to 0.0126335
Heightened Def Con from 0.0126335 to 0.0126335
Heightened Def Con from 0.0126335 to 0.0126335
Heightened Def Con from 0.0126335 to 0.0126335
Heightened Def Con from 0.0126335 to 0.0126335
Heightened Def Con from 0.0126335 to 0.0126335
Heightened Def Con from 0.0126335 to 0.0126335
Heightened Def Con from 0.0126335 to 0.0126335
Heightened Def Con from 0.0126335 to 0.0126335
Heightened Def Con from 0.0126335 to 0.0126335
Heightened Def Con from 0.0126335 to 0.0126335
Heightened Def Con from 0.0126335 to 0.0126335
Heightened Def Con from 0.0126335 to 0.0126335
Heightened Def Con from 0.0126335 to 0.0126335
Heightened Def Con from 0.0126335 to 0.0126335
[...]
Heightened Def Con from 0.0126348 to 0.0126348
Heightened Def Con from 0.0126348 to 0.0126348
Heightened Def Con from 0.0126348 to 0.0126348
Heightened Def Con from 0.0126348 to 0.0126348
Heightened Def Con from 0.0126348 to 0.0126348
Heightened Def Con from 0.0126348 to 0.0126348
Heightened Def Con from 0.0126348 to 0.0126348
Heightened Def Con from 0.0126348 to 0.0126348
Heightened Def Con from 0.0126348 to 0.0126348
Heightened Def Con from 0.0126348 to 0.0126348
Heightened Def Con from 0.0126348 to 0.0126348
Heightened Def Con from 0.0126348 to 0.0126348
Heightened Def Con from 0.0126348 to 0.0126348
Heightened Def Con from 0.0126348 to 0.0126348
Heightened Def Con from 0.0126348 to 0.0126348
Heightened Def Con from 0.0126348 to 0.0126348
Heightened Def Con from 0.0126348 to 0.0126348
Heightened Def Con from 0.0126348 to 0.0126348
Heightened Def Con from 0.0126348 to 0.0126348
Heightened Def Con from 0.0126348 to 0.0126348
Heightened Def Con from 0.0126348 to 0.0126348
Heightened Def Con from 0.0126348 to 0.0126348
Heightened Def Con from 0.0126348 to 0.0126348
Heightened Def Con from 0.0126348 to 0.0126348
Heightened Def Con from 0.0126348 to 0.0126348
Heightened Def Con from 0.0126348 to 0.0126348
Heightened Def Con from 0.0126348 to 0.0126348
Heightened Def Con from 0.0126348 to 0.0126348
Heightened Def Con from 0.0126348 to 0.0126348
Heightened Def Con from 0.0126348 to 0.0126348
Heightened Def Con from 0.0126348 to 0.0126348
Heightened Def Con from 0.0126348 to 0.0126348
Heightened Def Con from 0.0126348 to 0.0126348
Heightened Def Con from 0.0126348 to 0.0126348
Heightened Def Con from 0.0126348 to 0.0126348
Heightened Def Con from 0.0126348 to 0.0126348
Heightened Def Con from 0.0126348 to 0.0126348
Heightened Def Con from 0.0126348 to 0.0126348
Heightened Def Con from 0.0126348 to 0.0126348
Heightened Def Con from 0.0126348 to 0.0126348
Heightened Def Con from 0.0126348 to 0.0126348
Heightened Def Con from 0.0126348 to 0.0126348
Heightened Def Con from 0.0126348 to 0.0126348
Heightened Def Con from 0.0126348 to 0.0126348
Heightened Def Con from 0.0126348 to 0.0126348
Heightened Def Con from 0.0126348 to 0.0126348
Heightened Def Con from 0.0126348 to 0.0126348
Heightened Def Con from 0.0126348 to 0.0126348
Heightened Def Con from 0.0126348 to 0.0126348
Heightened Def Con from 0.0126348 to 0.0126348
Heightened Def Con from 0.0126348 to 0.0126348
Heightened Def Con from 0.0126348 to 0.0126348
Heightened Def Con from 0.0126348 to 0.0126348
Heightened Def Con from 0.0126348 to 0.0126348
Heightened Def Con from 0.0126349 to 0.0126349
Heightened Def Con from 0.0126349 to 0.0126349
Heightened Def Con from 0.0126349 to 0.0126349
Heightened Def Con from 0.0126349 to 0.0126349
Heightened Def Con from 0.0126349 to 0.0126349
Heightened Def Con from 0.0126349 to 0.0126349
Heightened Def Con from 0.0126349 to 0.0126349
Heightened Def Con from 0.0126349 to 0.0126349
Heightened Def Con from 0.0126349 to 0.0126349
Heightened Def Con from 0.0126349 to 0.0126349
Heightened Def Con from 0.0126349 to 0.0126349
Heightened Def Con from 0.0126349 to 0.0126349
Heightened Def Con from 0.0126349 to 0.0126349
Heightened Def Con from 0.0126349 to 0.0126349
Heightened Def Con from 0.0126349 to 0.0126349
Heightened Def Con from 0.0126349 to 0.0126349
Heightened Def Con from 0.0126349 to 0.0126349
Heightened Def Con from 0.0126349 to 0.0126349
Heightened Def Con from 0.0126349 to 0.0126349
Heightened Def Con from 0.0126349 to 0.0126349
Heightened Def Con from 0.0126349 to 0.0126349
Heightened Def Con from 0.0126349 to 0.0126349
Heightened Def Con from 0.0126349 to 0.0126349
Heightened Def Con from 0.0126349 to 0.0126349
Heightened Def Con from 0.0126349 to 0.0126349
Heightened Def Con from 0.0126349 to 0.0126349
Heightened Def Con from 0.0126349 to 0.0126349
Heightened Def Con from 0.0126349 to 0.0126349
Heightened Def Con from 0.0126349 to 0.0126349
Heightened Def Con from 0.0126349 to 0.0126349
Heightened Def Con from 0.0126349 to 0.0126349
Heightened Def Con from 0.0126349 to 0.0126349
Heightened Def Con from 0.0126349 to 0.0126349
Heightened Def Con from 0.0126349 to 0.0126349
Heightened Def Con from 0.0126349 to 0.0126349
Heightened Def Con from 0.0126349 to 0.0126349
Heightened Def Con from 0.0126349 to 0.0126349
Heightened Def Con from 0.0126349 to 0.0126349
Heightened Def Con from 0.0126349 to 0.0126349
Heightened Def Con from 0.0126349 to 0.0126349
Heightened Def Con from 0.0126349 to 0.0126349
Heightened Def Con from 0.0126349 to 0.0126349
Heightened Def Con from 0.0126349 to 0.0126349
Heightened Def Con from 0.0126349 to 0.0126349
Heightened Def Con from 0.0126349 to 0.0126349
Heightened Def Con from 0.0126349 to 0.0126349
Heightened Def Con from 0.0126349 to 0.0126349
Heightened Def Con from 0.0126349 to 0.0126349
Heightened Def Con from 0.0126349 to 0.0126349
Heightened Def Con from 0.0126349 to 0.0126349
Heightened Def Con from 0.0126349 to 0.0126349
Heightened Def Con from 0.0126349 to 0.0126349
Heightened Def Con from 0.0126349 to 0.0126349
Heightened Def Con from 0.0126349 to 0.0126349
Heightened Def Con from 0.0126349 to 0.0126349
Heightened Def Con from 0.0126349 to 0.0126349
Heightened Def Con from 0.0126349 to 0.0126349
Heightened Def Con from 0.0126349 to 0.0126349
Heightened Def Con from 0.0126349 to 0.0126349
Heightened Def Con from 0.0126349 to 0.0126349
Heightened Def Con from 0.0126349 to 0.0126349
Heightened Def Con from 0.0126349 to 0.0126349
Heightened Def Con from 0.0126349 to 0.0126349
Heightened Def Con from 0.0126349 to 0.0126349
Heightened Def Con from 0.0126349 to 0.0126349
Heightened Def Con from 0.0126349 to 0.0126349
Heightened Def Con from 0.0126349 to 0.0126349
Heightened Def Con from 0.0126349 to 0.0126349
Heightened Def Con from 0.0126349 to 0.0126349
Heightened Def Con from 0.0126349 to 0.0126349
Heightened Def Con from 0.0126349 to 0.0126349
Heightened Def Con from 0.0126349 to 0.0126349
Heightened Def Con from 0.0126349 to 0.0126349
Heightened Def Con from 0.0126349 to 0.0126349
Heightened Def Con from 0.0126349 to 0.0126349
Heightened Def Con from 0.0126349 to 0.0126349
Heightened Def Con from 0.0126349 to 0.0126349
Heightened Def Con from 0.0126349 to 0.0126349
Heightened Def Con from 0.0126349 to 0.0126349
Heightened Def Con from 0.0126349 to 0.0126349
Heightened Def Con from 0.0126349 to 0.0126349
Heightened Def Con from 0.0126349 to 0.0126349
Heightened Def Con from 0.0126349 to 0.0126349
Heightened Def Con from 0.0126349 to 0.0126349
Heightened Def Con from 0.0126349 to 0.0126349
Heightened Def Con from 0.0126349 to 0.0126349
Heightened Def Con from 0.0126349 to 0.0126349
Heightened Def Con from 0.0126349 to 0.0126349
Heightened Def Con from 0.0126349 to 0.0126349
Heightened Def Con from 0.0126349 to 0.0126349
Heightened Def Con from 0.0126349 to 0.0126349
Heightened Def Con from 0.0126349 to 0.0126349
Heightened Def Con from 0.0126349 to 0.0126349
Heightened Def Con from 0.0126349 to 0.0126349
Heightened Def Con from 0.0126349 to 0.0126349
Heightened Def Con from 0.0126349 to 0.0126349
Heightened Def Con from 0.0126349 to 0.0126349
Heightened Def Con from 0.0126349 to 0.0126349
Heightened Def Con from 0.0126349 to 0.0126349
Heightened Def Con from 0.0126349 to 0.0126349
Heightened Def Con from 0.0126349 to 0.0126349
Heightened Def Con from 0.0126349 to 0.0126349
Heightened Def Con from 0.0126349 to 0.0126349
Heightened Def Con from 0.0126349 to 0.0126349
Heightened Def Con from 0.0126349 to 0.0126349
Heightened Def Con from 0.0126349 to 0.0126349
Heightened Def Con from 0.0126349 to 0.0126349
Heightened Def Con from 0.0126349 to 0.0126349
Heightened Def Con from 0.0126349 to 0.0126349
Heightened Def Con from 0.0126349 to 0.0126349
Heightened Def Con from 0.0126349 to 0.0126349
Heightened Def Con from 0.0126349 to 0.0126349
Heightened Def Con from 0.0126349 to 0.0126349
Heightened Def Con from 0.0126349 to 0.0126349
Heightened Def Con from 0.0126349 to 0.0126349
Heightened Def Con from 0.0126349 to 0.0126349
Heightened Def Con from 0.0126349 to 0.0126349
Heightened Def Con from 0.0126349 to 0.0126349
Heightened Def Con from 0.0126349 to 0.0126349
Heightened Def Con from 0.0126349 to 0.0126349
Heightened Def Con from 0.0126349 to 0.0126349
Heightened Def Con from 0.0126349 to 0.0126349
Heightened Def Con from 0.0126349 to 0.0126349
Heightened Def Con from 0.0126349 to 0.0126349
Heightened Def Con from 0.0126349 to 0.0126349
Heightened Def Con from 0.0126349 to 0.0126349
Heightened Def Con from 0.0126349 to 0.0126349
Heightened Def Con from 0.0126349 to 0.0126349
Heightened Def Con from 0.0126349 to 0.0126349
Heightened Def Con from 0.0126349 to 0.0126349
Heightened Def Con from 0.0126349 to 0.0126349
Heightened Def Con from 0.0126349 to 0.0126349
Heightened Def Con from 0.0126349 to 0.0126349
Heightened Def Con from 0.0126349 to 0.0126349
Heightened Def Con from 0.0126349 to 0.0126349
Heightened Def Con from 0.0126349 to 0.0126349
Heightened Def Con from 0.0126349 to 0.0126349
Heightened Def Con from 0.0126349 to 0.0126349
Heightened Def Con from 0.0126349 to 0.0126349
Heightened Def Con from 0.0126349 to 0.0126349
Heightened Def Con from 0.0126349 to 0.0126349
Heightened Def Con from 0.0126349 to 0.0126349
Heightened Def Con from 0.0126349 to 0.0126349
Heightened Def Con from 0.0126349 to 0.0126349
Heightened Def Con from 0.0126349 to 0.0126349
Heightened Def Con from 0.0126349 to 0.0126349
Heightened Def Con from 0.0126349 to 0.0126349
Heightened Def Con from 0.0126349 to 0.0126349
Heightened Def Con from 0.0126349 to 0.0126349
Heightened Def Con from 0.0126349 to 0.0126349
Heightened Def Con from 0.0126349 to 0.0126349
Heightened Def Con from 0.0126349 to 0.0126349
Heightened Def Con from 0.0126349 to 0.0126349
Heightened Def Con from 0.0126349 to 0.0126349
Heightened Def Con from 0.0126349 to 0.0126349
Heightened Def Con from 0.0126349 to 0.0126349
Heightened Def Con from 0.0126349 to 0.0126349
Heightened Def Con from 0.0126349 to 0.0126349
Heightened Def Con from 0.0126349 to 0.0126349
Heightened Def Con from 0.0126349 to 0.0126349
Heightened Def Con from 0.0126349 to 0.0126349
Heightened Def Con from 0.0126349 to 0.0126349
Heightened Def Con from 0.0126349 to 0.0126349
Heightened Def Con from 0.0126349 to 0.0126349
Heightened Def Con from 0.0126349 to 0.0126349
Heightened Def Con from 0.0126349 to 0.0126349
Heightened Def Con from 0.0126349 to 0.0126349
Heightened Def Con from 0.0126349 to 0.0126349
Heightened Def Con from 0.0126349 to 0.0126349
Heightened Def Con from 0.0126349 to 0.0126349
Heightened Def Con from 0.0126349 to 0.0126349
Heightened Def Con from 0.0126349 to 0.0126349
Heightened Def Con from 0.0126349 to 0.0126349
Heightened Def Con from 0.0126349 to 0.0126349
Heightened Def Con from 0.0126349 to 0.0126349
Heightened Def Con from 0.0126349 to 0.0126349
Heightened Def Con from 0.0126349 to 0.0126349
Heightened Def Con from 0.0126349 to 0.0126349
Heightened Def Con from 0.0126349 to 0.0126349
Heightened Def Con from 0.0126349 to 0.0126349
Heightened Def Con from 0.0126349 to 0.0126349
Heightened Def Con from 0.0126349 to 0.0126349
Heightened Def Con from 0.0126349 to 0.0126349
Heightened Def Con from 0.0126349 to 0.0126349
Heightened Def Con from 0.0126349 to 0.0126349
Heightened Def Con from 0.0126349 to 0.0126349
Heightened Def Con from 0.0126349 to 0.0126349
Heightened Def Con from 0.0126349 to 0.0126349
Heightened Def Con from 0.0126349 to 0.0126349
Heightened Def Con from 0.0126349 to 0.0126349
Heightened Def Con from 0.0126349 to 0.0126349
Heightened Def Con from 0.0126349 to 0.0126349
Heightened Def Con from 0.0126349 to 0.0126349
Heightened Def Con from 0.0126349 to 0.0126349
Heightened Def Con from 0.0126349 to 0.0126349
Heightened Def Con from 0.0126349 to 0.0126349
Heightened Def Con from 0.0126349 to 0.0126349
Heightened Def Con from 0.0126349 to 0.0126349
Heightened Def Con from 0.0126349 to 0.0126349
Heightened Def Con from 0.0126349 to 0.0126349
Heightened Def Con from 0.0126349 to 0.0126349
Heightened Def Con from 0.0126349 to 0.0126349
Heightened Def Con from 0.0126349 to 0.0126349
Heightened Def Con from 0.0126349 to 0.0126349
Heightened Def Con from 0.0126349 to 0.0126349
Heightened Def Con from 0.0126349 to 0.0126349
Heightened Def Con from 0.0126349 to 0.0126349
Heightened Def Con from 0.0126349 to 0.0126349
Heightened Def Con from 0.0126349 to 0.0126349
Heightened Def Con from 0.0126349 to 0.0126349
Heightened Def Con from 0.0126349 to 0.0126349
Heightened Def Con from 0.0126349 to 0.0126349
Heightened Def Con from 0.0126349 to 0.0126349
Heightened Def Con from 0.0126349 to 0.0126349
Heightened Def Con from 0.0126349 to 0.0126349
Heightened Def Con from 0.0126349 to 0.0126349
Heightened Def Con from 0.0126349 to 0.0126349
Heightened Def Con from 0.0126349 to 0.0126349
Heightened Def Con from 0.0126349 to 0.0126349
Heightened Def Con from 0.0126349 to 0.0126349
Heightened Def Con from 0.0126349 to 0.0126349
Heightened Def Con from 0.0126349 to 0.0126349
Heightened Def Con from 0.0126349 to 0.0126349
Heightened Def Con from 0.0126349 to 0.0126349
Heightened Def Con from 0.0126349 to 0.0126349
Heightened Def Con from 0.0126349 to 0.0126349
Heightened Def Con from 0.0126349 to 0.0126349
Heightened Def Con from 0.0126349 to 0.0126349
Heightened Def Con from 0.0126349 to 0.0126349
Heightened Def Con from 0.0126349 to 0.0126349
Heightened Def Con from 0.0126349 to 0.0126349
Heightened Def Con from 0.0126349 to 0.0126349
Heightened Def Con from 0.0126349 to 0.0126349
Heightened Def Con from 0.0126349 to 0.0126349
Heightened Def Con from 0.0126349 to 0.0126349
Heightened Def Con from 0.0126349 to 0.0126349
Heightened Def Con from 0.0126349 to 0.0126349
Heightened Def Con from 0.0126349 to 0.0126349
Heightened Def Con from 0.0126349 to 0.0126349
Heightened Def Con from 0.0126349 to 0.0126349
Heightened Def Con from 0.0126349 to 0.0126349
Heightened Def Con from 0.0126349 to 0.0126349
Heightened Def Con from 0.0126349 to 0.0126349
Heightened Def Con from 0.0126349 to 0.0126349
Heightened Def Con from 0.0126349 to 0.0126349
Heightened Def Con from 0.0126349 to 0.0126349
Heightened Def Con from 0.0126349 to 0.0126349
Heightened Def Con from 0.0126349 to 0.0126349
Heightened Def Con from 0.0126349 to 0.0126349
Heightened Def Con from 0.0126349 to 0.0126349
Heightened Def Con from 0.0126349 to 0.0126349
Heightened Def Con from 0.0126349 to 0.0126349
Heightened Def Con from 0.0126349 to 0.0126349
Heightened Def Con from 0.0126349 to 0.0126349
Heightened Def Con from 0.0126349 to 0.0126349
Heightened Def Con from 0.0126349 to 0.0126349
Heightened Def Con from 0.0126349 to 0.0126349
Heightened Def Con from 0.0126349 to 0.0126349
Heightened Def Con from 0.0126349 to 0.0126349
Heightened Def Con from 0.0126349 to 0.0126349
Heightened Def Con from 0.0126349 to 0.0126349
Heightened Def Con from 0.0126349 to 0.0126349
Heightened Def Con from 0.0126349 to 0.0126349
Heightened Def Con from 0.0126349 to 0.0126349
Heightened Def Con from 0.0126349 to 0.0126349
Heightened Def Con from 0.0126349 to 0.0126349
Heightened Def Con from 0.0126349 to 0.0126349
Heightened Def Con from 0.0126349 to 0.0126349
Heightened Def Con from 0.0126349 to 0.0126349
Heightened Def Con from 0.0126349 to 0.0126349
Heightened Def Con from 0.0126349 to 0.0126349
Heightened Def Con from 0.0126349 to 0.0126349
Heightened Def Con from 0.0126349 to 0.0126349
Heightened Def Con from 0.0126349 to 0.0126349
Heightened Def Con from 0.0126349 to 0.0126349
Heightened Def Con from 0.0126349 to 0.0126349
Heightened Def Con from 0.0126349 to 0.0126349
Heightened Def Con from 0.0126349 to 0.0126349
Heightened Def Con from 0.0126349 to 0.0126349
Heightened Def Con from 0.0126349 to 0.0126349
Heightened Def Con from 0.0126349 to 0.0126349
Heightened Def Con from 0.0126349 to 0.0126349
Heightened Def Con from 0.0126349 to 0.0126349
Heightened Def Con from 0.0126349 to 0.0126349
Heightened Def Con from 0.0126349 to 0.0126349
Heightened Def Con from 0.0126349 to 0.0126349
Heightened Def Con from 0.0126349 to 0.0126349
Heightened Def Con from 0.0126349 to 0.0126349
Heightened Def Con from 0.0126349 to 0.0126349
Heightened Def Con from 0.0126349 to 0.0126349
Heightened Def Con from 0.0126349 to 0.0126349
Heightened Def Con from 0.0126349 to 0.0126349
Heightened Def Con from 0.0126349 to 0.0126349
Heightened Def Con from 0.0126349 to 0.0126349
Heightened Def Con from 0.0126349 to 0.0126349
Heightened Def Con from 0.0126349 to 0.0126349
Heightened Def Con from 0.0126349 to 0.0126349
Heightened Def Con from 0.0126349 to 0.0126349
Heightened Def Con from 0.0126349 to 0.0126349
Heightened Def Con from 0.0126349 to 0.0126349
Heightened Def Con from 0.0126349 to 0.0126349
Heightened Def Con from 0.0126349 to 0.0126349
Heightened Def Con from 0.0126349 to 0.0126349
Heightened Def Con from 0.0126349 to 0.0126349
Heightened Def Con from 0.0126349 to 0.0126349
Heightened Def Con from 0.0126349 to 0.0126349
Heightened Def Con from 0.0126349 to 0.0126349
Heightened Def Con from 0.0126349 to 0.0126349
Heightened Def Con from 0.0126349 to 0.0126349
Heightened Def Con from 0.0126349 to 0.0126349
Heightened Def Con from 0.0126349 to 0.0126349
Heightened Def Con from 0.0126349 to 0.0126349
Heightened Def Con from 0.0126349 to 0.0126349
Heightened Def Con from 0.0126349 to 0.0126349
Heightened Def Con from 0.0126349 to 0.0126349
Heightened Def Con from 0.0126349 to 0.0126349
Heightened Def Con from 0.0126349 to 0.0126349
Heightened Def Con from 0.0126349 to 0.0126349
Heightened Def Con from 0.0126349 to 0.0126349
Heightened Def Con from 0.0126349 to 0.0126349
Heightened Def Con from 0.0126349 to 0.0126349
Heightened Def Con from 0.0126349 to 0.0126349
Heightened Def Con from 0.0126349 to 0.0126349
Heightened Def Con from 0.0126349 to 0.0126349
Heightened Def Con from 0.0126349 to 0.0126349
Heightened Def Con from 0.0126349 to 0.0126349
Heightened Def Con from 0.0126349 to 0.0126349
Heightened Def Con from 0.0126349 to 0.0126349
Heightened Def Con from 0.0126349 to 0.0126349
Heightened Def Con from 0.0126349 to 0.0126349
Heightened Def Con from 0.0126349 to 0.0126349
Heightened Def Con from 0.0126349 to 0.0126349
Heightened Def Con from 0.0126349 to 0.0126349
Heightened Def Con from 0.0126349 to 0.0126349
Heightened Def Con from 0.0126349 to 0.0126349
Heightened Def Con from 0.0126349 to 0.0126349
Heightened Def Con from 0.0126349 to 0.0126349
Heightened Def Con from 0.0126349 to 0.0126349
Heightened Def Con from 0.0126349 to 0.0126349
Heightened Def Con from 0.0126349 to 0.0126349
Heightened Def Con from 0.0126349 to 0.0126349
Heightened Def Con from 0.0126349 to 0.0126349
Heightened Def Con from 0.0126349 to 0.0126349
Heightened Def Con from 0.0126349 to 0.0126349
Heightened Def Con from 0.0126349 to 0.0126349
Heightened Def Con from 0.0126349 to 0.0126349
Heightened Def Con from 0.0126349 to 0.0126349
Heightened Def Con from 0.0126349 to 0.0126349
Heightened Def Con from 0.012635 to 0.012635
Heightened Def Con from 0.012635 to 0.012635
Heightened Def Con from 0.012635 to 0.012635
Heightened Def Con from 0.012635 to 0.012635
Heightened Def Con from 0.012635 to 0.012635
Heightened Def Con from 0.012635 to 0.012635
Heightened Def Con from 0.012635 to 0.012635
Heightened Def Con from 0.012635 to 0.012635
Heightened Def Con from 0.012635 to 0.012635
Heightened Def Con from 0.012635 to 0.012635
Heightened Def Con from 0.012635 to 0.012635
Heightened Def Con from 0.012635 to 0.012635
Heightened Def Con from 0.012635 to 0.012635
Heightened Def Con from 0.012635 to 0.012635
Heightened Def Con from 0.012635 to 0.012635

Date: Sun Sep 08 14:34:52 2024
Total elapsed time: 15.502 seconds.

tnom = 27
temp = 27
method = modified trap
totiter = 3382886
traniter = 3382874
tranpoints = 691505
accept = 477555
rejected = 219849
matrix size = 20
fillins = 4
solver = Normal
Matrix Compiler1: 906 bytes object code size  0.5/0.2/[0.2]
Matrix Compiler2: 1.31 KB object code size  0.3/0.4/[0.2]
>>>>>>> 7cd10bd584a4d146a8dd5029c2214489b8dfea32

